data_image0
_cell_length_a       6.94124
_cell_length_b       7.17875
_cell_length_c       8.79239
_cell_angle_alpha    82.2666
_cell_angle_beta     71.362
_cell_angle_gamma    81.6035

_symmetry_space_group_name_H-M    "P 1"
_symmetry_int_tables_number       1

loop_
  _symmetry_equiv_pos_as_xyz
  'x, y, z'

loop_
  _atom_site_label
  _atom_site_occupancy
  _atom_site_fract_x
  _atom_site_fract_y
  _atom_site_fract_z
  _atom_site_thermal_displace_type
  _atom_site_B_iso_or_equiv
  _atom_site_type_symbol
  Ba1      1.0000 0.09826  0.73472  0.35340  Biso   1.000  Ba
  Ba2      1.0000 0.90174  0.26528  0.64660  Biso   1.000  Ba
  Cu1      1.0000 0.00001  0.00000  1.00000  Biso   1.000  Cu
  H1       1.0000 0.59633  0.90440  0.07230  Biso   1.000  H
  H2       1.0000 0.40367  0.09560  0.92770  Biso   1.000  H
  H3       1.0000 0.00469  0.36603  0.09000  Biso   1.000  H
  H4       1.0000 0.99531  0.63396  0.91000  Biso   1.000  H
  H5       1.0000 0.45766  0.39782  0.12469  Biso   1.000  H
  H6       1.0000 0.54234  0.60218  0.87530  Biso   1.000  H
  H7       1.0000 0.34656  0.05710  0.42540  Biso   1.000  H
  H8       1.0000 0.65344  0.94290  0.57461  Biso   1.000  H
  H9       1.0000 0.30117  0.92726  0.59176  Biso   1.000  H
  H10      1.0000 0.69883  0.07274  0.40825  Biso   1.000  H
  H11      1.0000 0.38401  0.34770  0.41919  Biso   1.000  H
  H12      1.0000 0.61599  0.65229  0.58081  Biso   1.000  H
  H13      1.0000 0.35027  0.40455  0.59275  Biso   1.000  H
  H14      1.0000 0.64972  0.59546  0.40725  Biso   1.000  H
  C1       1.0000 0.65177  0.80743  0.16210  Biso   1.000  C
  C2       1.0000 0.34823  0.19257  0.83790  Biso   1.000  C
  C3       1.0000 0.04498  0.27530  0.19005  Biso   1.000  C
  C4       1.0000 0.95502  0.72470  0.80995  Biso   1.000  C
  C5       1.0000 0.57729  0.28120  0.13762  Biso   1.000  C
  C6       1.0000 0.42271  0.71880  0.86238  Biso   1.000  C
  O1       1.0000 0.83695  0.81507  0.15913  Biso   1.000  O
  O2       1.0000 0.16305  0.18493  0.84087  Biso   1.000  O
  O3       1.0000 0.53517  0.69678  0.25821  Biso   1.000  O
  O4       1.0000 0.46483  0.30322  0.74180  Biso   1.000  O
  O5       1.0000 0.06440  0.35041  0.30409  Biso   1.000  O
  O6       1.0000 0.93559  0.64959  0.69591  Biso   1.000  O
  O7       1.0000 0.07019  0.09570  0.17902  Biso   1.000  O
  O8       1.0000 0.92982  0.90430  0.82098  Biso   1.000  O
  O9       1.0000 0.71919  0.24144  0.01120  Biso   1.000  O
  O10      1.0000 0.28081  0.75856  0.98880  Biso   1.000  O
  O11      1.0000 0.55576  0.20143  0.28059  Biso   1.000  O
  O12      1.0000 0.44424  0.79857  0.71940  Biso   1.000  O
  O13      1.0000 0.24140  0.98674  0.50585  Biso   1.000  O
  O14      1.0000 0.75860  0.01326  0.49415  Biso   1.000  O
  O15      1.0000 0.28621  0.42271  0.50475  Biso   1.000  O
  O16      1.0000 0.71379  0.57729  0.49525  Biso   1.000  O
