data_image0
_cell_length_a       11.0159
_cell_length_b       10.9799
_cell_length_c       15.5253
_cell_angle_alpha    90
_cell_angle_beta     90
_cell_angle_gamma    108.387

_symmetry_space_group_name_H-M    "P 1"
_symmetry_int_tables_number       1

loop_
  _symmetry_equiv_pos_as_xyz
  'x, y, z'

loop_
  _atom_site_label
  _atom_site_occupancy
  _atom_site_fract_x
  _atom_site_fract_y
  _atom_site_fract_z
  _atom_site_thermal_displace_type
  _atom_site_B_iso_or_equiv
  _atom_site_type_symbol
  Cu1      1.0000 0.74080  0.81782  0.21895  Biso   1.000  Cu
  Cu2      1.0000 0.74080  0.31782  0.28105  Biso   1.000  Cu
  Cu3      1.0000 0.25920  0.18217  0.78105  Biso   1.000  Cu
  Cu4      1.0000 0.25920  0.68218  0.71895  Biso   1.000  Cu
  Cu5      1.0000 0.73543  0.57736  0.21162  Biso   1.000  Cu
  Cu6      1.0000 0.73543  0.07736  0.28837  Biso   1.000  Cu
  Cu7      1.0000 0.26457  0.42264  0.78837  Biso   1.000  Cu
  Cu8      1.0000 0.26457  0.92264  0.71163  Biso   1.000  Cu
  Cu9      1.0000 0.59902  0.64968  0.32300  Biso   1.000  Cu
  Cu10     1.0000 0.59902  0.14968  0.17700  Biso   1.000  Cu
  Cu11     1.0000 0.40098  0.35032  0.67700  Biso   1.000  Cu
  Cu12     1.0000 0.40098  0.85032  0.82300  Biso   1.000  Cu
  H1       1.0000 0.45606  0.81874  0.46613  Biso   1.000  H
  H2       1.0000 0.45606  0.31874  0.03387  Biso   1.000  H
  H3       1.0000 0.54394  0.18126  0.53387  Biso   1.000  H
  H4       1.0000 0.54394  0.68126  0.96613  Biso   1.000  H
  H5       1.0000 0.15971  0.49775  0.35247  Biso   1.000  H
  H6       1.0000 0.15971  0.99776  0.14754  Biso   1.000  H
  H7       1.0000 0.84029  0.50224  0.64753  Biso   1.000  H
  H8       1.0000 0.84029  0.00225  0.85247  Biso   1.000  H
  H9       1.0000 0.96950  0.79935  0.39309  Biso   1.000  H
  H10      1.0000 0.96950  0.29935  0.10691  Biso   1.000  H
  H11      1.0000 0.03050  0.20065  0.60691  Biso   1.000  H
  H12      1.0000 0.03050  0.70065  0.89309  Biso   1.000  H
  H13      1.0000 0.04648  0.87453  0.48871  Biso   1.000  H
  H14      1.0000 0.04648  0.37453  0.01129  Biso   1.000  H
  H15      1.0000 0.95352  0.12547  0.51129  Biso   1.000  H
  H16      1.0000 0.95352  0.62547  0.98871  Biso   1.000  H
  H17      1.0000 0.29687  0.93592  0.47146  Biso   1.000  H
  H18      1.0000 0.29687  0.43593  0.02854  Biso   1.000  H
  H19      1.0000 0.70313  0.06408  0.52854  Biso   1.000  H
  H20      1.0000 0.70313  0.56408  0.97146  Biso   1.000  H
  H21      1.0000 0.03191  0.03566  0.37705  Biso   1.000  H
  H22      1.0000 0.03191  0.53566  0.12296  Biso   1.000  H
  H23      1.0000 0.96809  0.96434  0.62296  Biso   1.000  H
  H24      1.0000 0.96809  0.46434  0.87705  Biso   1.000  H
  H25      1.0000 0.11789  0.97213  0.30299  Biso   1.000  H
  H26      1.0000 0.11789  0.47213  0.19701  Biso   1.000  H
  H27      1.0000 0.88212  0.02787  0.69701  Biso   1.000  H
  H28      1.0000 0.88211  0.52787  0.80299  Biso   1.000  H
  H29      1.0000 0.19513  0.05296  0.39803  Biso   1.000  H
  H30      1.0000 0.19513  0.55296  0.10197  Biso   1.000  H
  H31      1.0000 0.80487  0.94704  0.60197  Biso   1.000  H
  H32      1.0000 0.80487  0.44704  0.89803  Biso   1.000  H
  H33      1.0000 0.40321  0.34684  0.42384  Biso   1.000  H
  H34      1.0000 0.40321  0.84684  0.07616  Biso   1.000  H
  H35      1.0000 0.59679  0.65316  0.57615  Biso   1.000  H
  H36      1.0000 0.59679  0.15316  0.92384  Biso   1.000  H
  H37      1.0000 0.25460  0.37697  0.42756  Biso   1.000  H
  H38      1.0000 0.25460  0.87698  0.07244  Biso   1.000  H
  H39      1.0000 0.74540  0.62302  0.57244  Biso   1.000  H
  H40      1.0000 0.74540  0.12303  0.92756  Biso   1.000  H
  H41      1.0000 0.01676  0.63127  0.35673  Biso   1.000  H
  H42      1.0000 0.01676  0.13128  0.14327  Biso   1.000  H
  H43      1.0000 0.98324  0.36872  0.64327  Biso   1.000  H
  H44      1.0000 0.98324  0.86872  0.85673  Biso   1.000  H
  H45      1.0000 0.26874  0.26311  0.29120  Biso   1.000  H
  H46      1.0000 0.26874  0.76311  0.20880  Biso   1.000  H
  H47      1.0000 0.73126  0.73689  0.70879  Biso   1.000  H
  H48      1.0000 0.73126  0.23689  0.79120  Biso   1.000  H
  H49      1.0000 0.42034  0.37578  0.26624  Biso   1.000  H
  H50      1.0000 0.42035  0.87578  0.23376  Biso   1.000  H
  H51      1.0000 0.57965  0.62422  0.73376  Biso   1.000  H
  H52      1.0000 0.57965  0.12422  0.76624  Biso   1.000  H
  H53      1.0000 0.28073  0.42315  0.26192  Biso   1.000  H
  H54      1.0000 0.28073  0.92315  0.23808  Biso   1.000  H
  H55      1.0000 0.71927  0.57685  0.73808  Biso   1.000  H
  H56      1.0000 0.71927  0.07685  0.76192  Biso   1.000  H
  C1       1.0000 0.32235  0.64680  0.40918  Biso   1.000  C
  C2       1.0000 0.32236  0.14681  0.09082  Biso   1.000  C
  C3       1.0000 0.67765  0.35319  0.59082  Biso   1.000  C
  C4       1.0000 0.67764  0.85319  0.90918  Biso   1.000  C
  C5       1.0000 0.36000  0.77344  0.44125  Biso   1.000  C
  C6       1.0000 0.36000  0.27345  0.05875  Biso   1.000  C
  C7       1.0000 0.64000  0.22655  0.55875  Biso   1.000  C
  C8       1.0000 0.64000  0.72656  0.94125  Biso   1.000  C
  C9       1.0000 0.19698  0.59492  0.37769  Biso   1.000  C
  C10      1.0000 0.19699  0.09492  0.12231  Biso   1.000  C
  C11      1.0000 0.80302  0.40508  0.62231  Biso   1.000  C
  C12      1.0000 0.80302  0.90508  0.87769  Biso   1.000  C
  C13      1.0000 0.06040  0.86104  0.41957  Biso   1.000  C
  C14      1.0000 0.06040  0.36105  0.08043  Biso   1.000  C
  C15      1.0000 0.93960  0.13896  0.58043  Biso   1.000  C
  C16      1.0000 0.93960  0.63896  0.91958  Biso   1.000  C
  C17      1.0000 0.27353  0.84022  0.44370  Biso   1.000  C
  C18      1.0000 0.27353  0.34022  0.05631  Biso   1.000  C
  C19      1.0000 0.72647  0.15978  0.55630  Biso   1.000  C
  C20      1.0000 0.72647  0.65978  0.94370  Biso   1.000  C
  C21      1.0000 0.10547  0.98796  0.37176  Biso   1.000  C
  C22      1.0000 0.10547  0.48796  0.12824  Biso   1.000  C
  C23      1.0000 0.89453  0.01204  0.62824  Biso   1.000  C
  C24      1.0000 0.89453  0.51204  0.87176  Biso   1.000  C
  C25      1.0000 0.34519  0.39879  0.39186  Biso   1.000  C
  C26      1.0000 0.34519  0.89879  0.10814  Biso   1.000  C
  C27      1.0000 0.65481  0.60121  0.60814  Biso   1.000  C
  C28      1.0000 0.65481  0.10121  0.89186  Biso   1.000  C
  C29      1.0000 0.11500  0.66749  0.38006  Biso   1.000  C
  C30      1.0000 0.11500  0.16749  0.11994  Biso   1.000  C
  C31      1.0000 0.88501  0.33251  0.61994  Biso   1.000  C
  C32      1.0000 0.88500  0.83251  0.88006  Biso   1.000  C
  C33      1.0000 0.32786  0.36411  0.29710  Biso   1.000  C
  C34      1.0000 0.32786  0.86412  0.20289  Biso   1.000  C
  C35      1.0000 0.67214  0.63588  0.70289  Biso   1.000  C
  C36      1.0000 0.67214  0.13588  0.79710  Biso   1.000  C
  S1       1.0000 0.43422  0.56523  0.41673  Biso   1.000  S
  S2       1.0000 0.43423  0.06524  0.08327  Biso   1.000  S
  S3       1.0000 0.56577  0.43476  0.58327  Biso   1.000  S
  S4       1.0000 0.56577  0.93476  0.91673  Biso   1.000  S
  I1       1.0000 0.52120  0.63912  0.16339  Biso   1.000  I
  I2       1.0000 0.52120  0.13912  0.33661  Biso   1.000  I
  I3       1.0000 0.47880  0.36089  0.83661  Biso   1.000  I
  I4       1.0000 0.47879  0.86089  0.66339  Biso   1.000  I
  I5       1.0000 0.74834  0.01668  0.12331  Biso   1.000  I
  I6       1.0000 0.74834  0.51668  0.37669  Biso   1.000  I
  I7       1.0000 0.25166  0.98332  0.87669  Biso   1.000  I
  I8       1.0000 0.25166  0.48332  0.62331  Biso   1.000  I
  I9       1.0000 0.94668  0.76238  0.17169  Biso   1.000  I
  I10      1.0000 0.94668  0.26238  0.32831  Biso   1.000  I
  I11      1.0000 0.05332  0.23762  0.82831  Biso   1.000  I
  I12      1.0000 0.05332  0.73762  0.67170  Biso   1.000  I
  I13      1.0000 0.72266  0.87955  0.38752  Biso   1.000  I
  I14      1.0000 0.72266  0.37956  0.11248  Biso   1.000  I
  I15      1.0000 0.27734  0.12044  0.61248  Biso   1.000  I
  I16      1.0000 0.27733  0.62044  0.88752  Biso   1.000  I
  N1       1.0000 0.15241  0.78768  0.41336  Biso   1.000  N
  N2       1.0000 0.15241  0.28769  0.08664  Biso   1.000  N
  N3       1.0000 0.84759  0.21232  0.58664  Biso   1.000  N
  N4       1.0000 0.84759  0.71232  0.91336  Biso   1.000  N
