data_image0
_cell_length_a       7.50362
_cell_length_b       7.36632
_cell_length_c       16.1896
_cell_angle_alpha    90.0001
_cell_angle_beta     89.9998
_cell_angle_gamma    115.02

_symmetry_space_group_name_H-M    "P 1"
_symmetry_int_tables_number       1

loop_
  _symmetry_equiv_pos_as_xyz
  'x, y, z'

loop_
  _atom_site_label
  _atom_site_occupancy
  _atom_site_fract_x
  _atom_site_fract_y
  _atom_site_fract_z
  _atom_site_thermal_displace_type
  _atom_site_B_iso_or_equiv
  _atom_site_type_symbol
  Ag1      1.0000 0.03518  0.47120  0.10864  Biso   1.000  Ag
  Ag2      1.0000 0.46482  0.52880  0.60864  Biso   1.000  Ag
  Ag3      1.0000 0.96482  0.52880  0.89136  Biso   1.000  Ag
  Ag4      1.0000 0.53519  0.47120  0.39136  Biso   1.000  Ag
  Ag5      1.0000 0.35630  0.76311  0.39696  Biso   1.000  Ag
  Ag6      1.0000 0.14370  0.23689  0.89695  Biso   1.000  Ag
  Ag7      1.0000 0.64370  0.23688  0.60305  Biso   1.000  Ag
  Ag8      1.0000 0.85630  0.76312  0.10304  Biso   1.000  Ag
  H1       1.0000 0.36352  0.67290  0.00406  Biso   1.000  H
  H2       1.0000 0.13648  0.32710  0.50406  Biso   1.000  H
  H3       1.0000 0.63647  0.32710  0.99594  Biso   1.000  H
  H4       1.0000 0.86353  0.67290  0.49594  Biso   1.000  H
  H5       1.0000 0.28711  0.83629  0.02692  Biso   1.000  H
  H6       1.0000 0.21289  0.16371  0.52692  Biso   1.000  H
  H7       1.0000 0.71288  0.16371  0.97308  Biso   1.000  H
  H8       1.0000 0.78711  0.83629  0.47308  Biso   1.000  H
  H9       1.0000 0.65449  0.05030  0.10508  Biso   1.000  H
  H10      1.0000 0.84550  0.94970  0.60508  Biso   1.000  H
  H11      1.0000 0.34550  0.94970  0.89491  Biso   1.000  H
  H12      1.0000 0.15450  0.05030  0.39492  Biso   1.000  H
  H13      1.0000 0.42778  0.79741  0.20810  Biso   1.000  H
  H14      1.0000 0.07221  0.20260  0.70810  Biso   1.000  H
  H15      1.0000 0.57221  0.20259  0.79190  Biso   1.000  H
  H16      1.0000 0.92779  0.79741  0.29190  Biso   1.000  H
  C1       1.0000 0.02744  0.46165  0.30778  Biso   1.000  C
  C2       1.0000 0.47256  0.53835  0.80778  Biso   1.000  C
  C3       1.0000 0.97256  0.53835  0.69222  Biso   1.000  C
  C4       1.0000 0.52744  0.46166  0.19222  Biso   1.000  C
  C5       1.0000 0.85300  0.27493  0.27933  Biso   1.000  C
  C6       1.0000 0.64699  0.72507  0.77933  Biso   1.000  C
  C7       1.0000 0.14699  0.72507  0.72067  Biso   1.000  C
  C8       1.0000 0.35301  0.27493  0.22067  Biso   1.000  C
  C9       1.0000 0.67587  0.07367  0.17143  Biso   1.000  C
  C10      1.0000 0.82412  0.92633  0.67143  Biso   1.000  C
  C11      1.0000 0.32412  0.92633  0.82857  Biso   1.000  C
  C12      1.0000 0.17588  0.07367  0.32857  Biso   1.000  C
  C13      1.0000 0.55156  0.93417  0.22762  Biso   1.000  C
  C14      1.0000 0.94844  0.06583  0.72762  Biso   1.000  C
  C15      1.0000 0.44844  0.06583  0.77238  Biso   1.000  C
  C16      1.0000 0.05157  0.93417  0.27238  Biso   1.000  C
  C17      1.0000 0.72738  0.13452  0.33616  Biso   1.000  C
  C18      1.0000 0.77262  0.86548  0.83616  Biso   1.000  C
  C19      1.0000 0.27262  0.86547  0.66384  Biso   1.000  C
  C20      1.0000 0.22739  0.13453  0.16384  Biso   1.000  C
  C21      1.0000 0.74641  0.15698  0.42914  Biso   1.000  C
  C22      1.0000 0.75360  0.84302  0.92913  Biso   1.000  C
  C23      1.0000 0.25360  0.84301  0.57086  Biso   1.000  C
  C24      1.0000 0.24641  0.15698  0.07086  Biso   1.000  C
  N1       1.0000 0.82373  0.24320  0.19764  Biso   1.000  N
  N2       1.0000 0.67627  0.75680  0.69764  Biso   1.000  N
  N3       1.0000 0.17627  0.75680  0.80236  Biso   1.000  N
  N4       1.0000 0.32373  0.24321  0.30236  Biso   1.000  N
  N5       1.0000 0.57597  0.96617  0.30928  Biso   1.000  N
  N6       1.0000 0.92403  0.03383  0.80928  Biso   1.000  N
  N7       1.0000 0.42403  0.03382  0.69072  Biso   1.000  N
  N8       1.0000 0.07598  0.96618  0.19072  Biso   1.000  N
  O1       1.0000 0.14652  0.57050  0.25397  Biso   1.000  O
  O2       1.0000 0.35349  0.42950  0.75397  Biso   1.000  O
  O3       1.0000 0.85348  0.42950  0.74603  Biso   1.000  O
  O4       1.0000 0.64652  0.57050  0.24603  Biso   1.000  O
  O5       1.0000 0.04238  0.49165  0.38539  Biso   1.000  O
  O6       1.0000 0.45762  0.50835  0.88539  Biso   1.000  O
  O7       1.0000 0.95762  0.50835  0.61461  Biso   1.000  O
  O8       1.0000 0.54238  0.49165  0.11461  Biso   1.000  O
  O9       1.0000 0.64613  0.23952  0.46241  Biso   1.000  O
  O10      1.0000 0.85388  0.76049  0.96241  Biso   1.000  O
  O11      1.0000 0.35387  0.76048  0.53759  Biso   1.000  O
  O12      1.0000 0.14613  0.23952  0.03759  Biso   1.000  O
  O13      1.0000 0.84567  0.08035  0.46634  Biso   1.000  O
  O14      1.0000 0.65433  0.91964  0.96634  Biso   1.000  O
  O15      1.0000 0.15434  0.91964  0.53366  Biso   1.000  O
  O16      1.0000 0.34567  0.08036  0.03366  Biso   1.000  O
  O17      1.0000 0.24380  0.69018  0.01620  Biso   1.000  O
  O18      1.0000 0.25620  0.30982  0.51620  Biso   1.000  O
  O19      1.0000 0.75620  0.30982  0.98380  Biso   1.000  O
  O20      1.0000 0.74380  0.69017  0.48380  Biso   1.000  O
