data_image0
_cell_length_a       7.52164
_cell_length_b       8.81369
_cell_length_c       7.89605
_cell_angle_alpha    81.7023
_cell_angle_beta     76.6597
_cell_angle_gamma    78.7896

_symmetry_space_group_name_H-M    "P 1"
_symmetry_int_tables_number       1

loop_
  _symmetry_equiv_pos_as_xyz
  'x, y, z'

loop_
  _atom_site_label
  _atom_site_occupancy
  _atom_site_fract_x
  _atom_site_fract_y
  _atom_site_fract_z
  _atom_site_thermal_displace_type
  _atom_site_B_iso_or_equiv
  _atom_site_type_symbol
  Ag1      1.0000 0.28005  0.30860  0.68056  Biso   1.000  Ag
  Ag2      1.0000 0.71994  0.69141  0.31945  Biso   1.000  Ag
  Ag3      1.0000 0.97504  0.96124  0.83420  Biso   1.000  Ag
  Ag4      1.0000 0.02495  0.03877  0.16580  Biso   1.000  Ag
  Ag5      1.0000 0.08474  0.48627  0.32768  Biso   1.000  Ag
  Ag6      1.0000 0.91524  0.51371  0.67235  Biso   1.000  Ag
  H1       1.0000 0.40119  0.89879  0.21877  Biso   1.000  H
  H2       1.0000 0.59880  0.10121  0.78121  Biso   1.000  H
  H3       1.0000 0.42649  0.52074  0.80179  Biso   1.000  H
  H4       1.0000 0.57351  0.47927  0.19820  Biso   1.000  H
  H5       1.0000 0.42706  0.36646  0.93696  Biso   1.000  H
  H6       1.0000 0.57293  0.63354  0.06305  Biso   1.000  H
  H7       1.0000 0.64839  0.87921  0.97881  Biso   1.000  H
  H8       1.0000 0.35162  0.12080  0.02118  Biso   1.000  H
  H9       1.0000 0.65517  0.03053  0.06330  Biso   1.000  H
  H10      1.0000 0.34484  0.96948  0.93668  Biso   1.000  H
  C1       1.0000 0.16093  0.74548  0.50795  Biso   1.000  C
  C2       1.0000 0.83909  0.25452  0.49204  Biso   1.000  C
  C3       1.0000 0.23514  0.89150  0.48826  Biso   1.000  C
  C4       1.0000 0.76487  0.10847  0.51173  Biso   1.000  C
  C5       1.0000 0.34240  0.95548  0.33638  Biso   1.000  C
  C6       1.0000 0.65759  0.04447  0.66367  Biso   1.000  C
  C7       1.0000 0.35673  0.10254  0.37401  Biso   1.000  C
  C8       1.0000 0.64325  0.89744  0.62602  Biso   1.000  C
  C9       1.0000 0.44180  0.22632  0.25501  Biso   1.000  C
  C10      1.0000 0.55822  0.77369  0.74496  Biso   1.000  C
  N1       1.0000 0.26237  0.12330  0.54120  Biso   1.000  N
  N2       1.0000 0.73761  0.87674  0.45882  Biso   1.000  N
  N3       1.0000 0.18873  0.99499  0.61066  Biso   1.000  N
  N4       1.0000 0.81129  0.00501  0.38929  Biso   1.000  N
  O1       1.0000 0.19928  0.67839  0.36832  Biso   1.000  O
  O2       1.0000 0.80072  0.32160  0.63173  Biso   1.000  O
  O3       1.0000 0.06265  0.70363  0.65675  Biso   1.000  O
  O4       1.0000 0.93736  0.29637  0.34324  Biso   1.000  O
  O5       1.0000 0.49985  0.20107  0.09158  Biso   1.000  O
  O6       1.0000 0.50016  0.79891  0.90839  Biso   1.000  O
  O7       1.0000 0.44776  0.35105  0.31333  Biso   1.000  O
  O8       1.0000 0.55225  0.64896  0.68666  Biso   1.000  O
  O9       1.0000 0.34992  0.43925  0.86406  Biso   1.000  O
  O10      1.0000 0.65007  0.56077  0.13595  Biso   1.000  O
  O11      1.0000 0.72966  0.92703  0.03394  Biso   1.000  O
  O12      1.0000 0.27036  0.07298  0.96605  Biso   1.000  O
