data_image0
_cell_length_a       8.81853
_cell_length_b       10.0289
_cell_length_c       10.0266
_cell_angle_alpha    68.3973
_cell_angle_beta     75.9071
_cell_angle_gamma    75.8982

_symmetry_space_group_name_H-M    "P 1"
_symmetry_int_tables_number       1

loop_
  _symmetry_equiv_pos_as_xyz
  'x, y, z'

loop_
  _atom_site_label
  _atom_site_occupancy
  _atom_site_fract_x
  _atom_site_fract_y
  _atom_site_fract_z
  _atom_site_thermal_displace_type
  _atom_site_B_iso_or_equiv
  _atom_site_type_symbol
  H1       1.0000 0.79426  0.12030  0.32028  Biso   1.000  H
  H2       1.0000 0.29422  0.32032  0.12036  Biso   1.000  H
  H3       1.0000 0.20573  0.87979  0.67972  Biso   1.000  H
  H4       1.0000 0.70575  0.67957  0.87968  Biso   1.000  H
  H5       1.0000 0.91557  0.26037  0.06821  Biso   1.000  H
  H6       1.0000 0.41553  0.06823  0.26050  Biso   1.000  H
  H7       1.0000 0.08437  0.73957  0.93181  Biso   1.000  H
  H8       1.0000 0.58461  0.93172  0.73961  Biso   1.000  H
  H9       1.0000 0.96843  0.73839  0.52474  Biso   1.000  H
  H10      1.0000 0.46844  0.52451  0.73830  Biso   1.000  H
  H11      1.0000 0.03165  0.26169  0.47539  Biso   1.000  H
  H12      1.0000 0.53164  0.47546  0.26179  Biso   1.000  H
  H13      1.0000 0.77843  0.83204  0.48058  Biso   1.000  H
  H14      1.0000 0.27830  0.48080  0.83206  Biso   1.000  H
  H15      1.0000 0.22163  0.16780  0.51946  Biso   1.000  H
  H16      1.0000 0.72180  0.51918  0.16794  Biso   1.000  H
  H17      1.0000 0.88492  0.90752  0.55440  Biso   1.000  H
  H18      1.0000 0.38522  0.55453  0.90729  Biso   1.000  H
  H19      1.0000 0.11479  0.09257  0.44567  Biso   1.000  H
  H20      1.0000 0.61474  0.44557  0.09272  Biso   1.000  H
  H21      1.0000 0.12830  0.26687  0.85240  Biso   1.000  H
  H22      1.0000 0.62809  0.85237  0.26688  Biso   1.000  H
  H23      1.0000 0.87186  0.73318  0.14758  Biso   1.000  H
  H24      1.0000 0.37179  0.14753  0.73311  Biso   1.000  H
  Pb1      1.0000 0.24990  0.61487  0.38495  Biso   1.000  Pb
  Pb2      1.0000 0.74989  0.38500  0.61481  Biso   1.000  Pb
  C1       1.0000 0.97312  0.92817  0.33073  Biso   1.000  C
  C2       1.0000 0.47306  0.33076  0.92818  Biso   1.000  C
  C3       1.0000 0.02677  0.07186  0.66928  Biso   1.000  C
  C4       1.0000 0.52696  0.66924  0.07186  Biso   1.000  C
  C5       1.0000 0.90166  0.07272  0.26161  Biso   1.000  C
  C6       1.0000 0.40153  0.26163  0.07271  Biso   1.000  C
  C7       1.0000 0.09831  0.92734  0.73839  Biso   1.000  C
  C8       1.0000 0.59843  0.73832  0.92727  Biso   1.000  C
  C9       1.0000 0.96872  0.14917  0.12391  Biso   1.000  C
  C10      1.0000 0.46858  0.12392  0.14916  Biso   1.000  C
  C11      1.0000 0.03125  0.85086  0.87608  Biso   1.000  C
  C12      1.0000 0.53143  0.87604  0.85083  Biso   1.000  C
  C13      1.0000 0.10927  0.08334  0.05284  Biso   1.000  C
  C14      1.0000 0.60919  0.05290  0.08329  Biso   1.000  C
  C15      1.0000 0.89062  0.91670  0.94708  Biso   1.000  C
  C16      1.0000 0.39079  0.94707  0.91659  Biso   1.000  C
  C17      1.0000 0.17692  0.93906  0.12911  Biso   1.000  C
  C18      1.0000 0.67682  0.12917  0.93906  Biso   1.000  C
  C19      1.0000 0.82302  0.06097  0.87087  Biso   1.000  C
  C20      1.0000 0.32322  0.87089  0.06093  Biso   1.000  C
  C21      1.0000 0.89852  0.84596  0.48021  Biso   1.000  C
  C22      1.0000 0.39851  0.48022  0.84591  Biso   1.000  C
  C23      1.0000 0.10146  0.15407  0.51985  Biso   1.000  C
  C24      1.0000 0.60156  0.51978  0.15415  Biso   1.000  C
  C25      1.0000 0.18257  0.15700  0.90941  Biso   1.000  C
  C26      1.0000 0.68244  0.90944  0.15700  Biso   1.000  C
  C27      1.0000 0.81745  0.84302  0.09055  Biso   1.000  C
  C28      1.0000 0.31752  0.09053  0.84295  Biso   1.000  C
  N1       1.0000 0.10615  0.86470  0.26475  Biso   1.000  N
  N2       1.0000 0.60611  0.26479  0.86475  Biso   1.000  N
  N3       1.0000 0.89374  0.13529  0.73526  Biso   1.000  N
  N4       1.0000 0.39403  0.73529  0.13536  Biso   1.000  N
  N5       1.0000 0.04878  0.49553  0.24404  Biso   1.000  N
  N6       1.0000 0.54868  0.24418  0.49548  Biso   1.000  N
  N7       1.0000 0.95133  0.50454  0.75597  Biso   1.000  N
  N8       1.0000 0.45129  0.75577  0.50446  Biso   1.000  N
  O1       1.0000 0.18738  0.52783  0.18504  Biso   1.000  O
  O2       1.0000 0.68745  0.18526  0.52746  Biso   1.000  O
  O3       1.0000 0.81277  0.47216  0.81506  Biso   1.000  O
  O4       1.0000 0.31255  0.81470  0.47248  Biso   1.000  O
  O5       1.0000 0.97475  0.53959  0.35141  Biso   1.000  O
  O6       1.0000 0.47476  0.35145  0.53971  Biso   1.000  O
  O7       1.0000 0.02534  0.46048  0.64860  Biso   1.000  O
  O8       1.0000 0.52528  0.64855  0.46017  Biso   1.000  O
  O9       1.0000 0.98867  0.42396  0.19842  Biso   1.000  O
  O10      1.0000 0.48834  0.19859  0.42402  Biso   1.000  O
  O11      1.0000 0.01145  0.57621  0.80153  Biso   1.000  O
  O12      1.0000 0.51162  0.80130  0.57599  Biso   1.000  O
