data_image0
_cell_length_a       3.82624
_cell_length_b       7.74469
_cell_length_c       13.0144
_cell_angle_alpha    90.0006
_cell_angle_beta     98.4643
_cell_angle_gamma    90.0003

_symmetry_space_group_name_H-M    "P 1"
_symmetry_int_tables_number       1

loop_
  _symmetry_equiv_pos_as_xyz
  'x, y, z'

loop_
  _atom_site_label
  _atom_site_occupancy
  _atom_site_fract_x
  _atom_site_fract_y
  _atom_site_fract_z
  _atom_site_thermal_displace_type
  _atom_site_B_iso_or_equiv
  _atom_site_type_symbol
  Cu1      1.0000 0.28289  0.56493  0.39828  Biso   1.000  Cu
  Cu2      1.0000 0.71704  0.06493  0.10173  Biso   1.000  Cu
  Cu3      1.0000 0.71708  0.43507  0.60172  Biso   1.000  Cu
  Cu4      1.0000 0.28297  0.93507  0.89826  Biso   1.000  Cu
  H1       1.0000 0.20044  0.27602  0.25021  Biso   1.000  H
  H2       1.0000 0.79944  0.77601  0.24981  Biso   1.000  H
  H3       1.0000 0.79961  0.72399  0.74978  Biso   1.000  H
  H4       1.0000 0.20051  0.22400  0.75021  Biso   1.000  H
  H5       1.0000 0.92256  0.20338  0.44389  Biso   1.000  H
  H6       1.0000 0.07745  0.70339  0.05612  Biso   1.000  H
  H7       1.0000 0.07743  0.79662  0.55612  Biso   1.000  H
  H8       1.0000 0.92257  0.29660  0.94388  Biso   1.000  H
  H9       1.0000 0.26061  0.11972  0.53964  Biso   1.000  H
  H10      1.0000 0.73943  0.61973  0.96036  Biso   1.000  H
  H11      1.0000 0.73938  0.88028  0.46037  Biso   1.000  H
  H12      1.0000 0.26059  0.38028  0.03963  Biso   1.000  H
  H13      1.0000 0.33179  0.12900  0.40739  Biso   1.000  H
  H14      1.0000 0.66824  0.62900  0.09261  Biso   1.000  H
  H15      1.0000 0.66820  0.87100  0.59262  Biso   1.000  H
  H16      1.0000 0.33178  0.37100  0.90739  Biso   1.000  H
  C1       1.0000 0.94272  0.34155  0.24118  Biso   1.000  C
  C2       1.0000 0.05716  0.84155  0.25883  Biso   1.000  C
  C3       1.0000 0.05727  0.65844  0.75881  Biso   1.000  C
  C4       1.0000 0.94281  0.15846  0.74118  Biso   1.000  C
  C5       1.0000 0.21067  0.19665  0.46798  Biso   1.000  C
  C6       1.0000 0.78936  0.69665  0.03203  Biso   1.000  C
  C7       1.0000 0.78933  0.80336  0.53203  Biso   1.000  C
  C8       1.0000 0.21068  0.30334  0.96797  Biso   1.000  C
  O1       1.0000 0.90015  0.47292  0.29687  Biso   1.000  O
  O2       1.0000 0.09975  0.97291  0.20314  Biso   1.000  O
  O3       1.0000 0.09984  0.52707  0.70313  Biso   1.000  O
  O4       1.0000 0.90022  0.02708  0.79685  Biso   1.000  O
  O5       1.0000 0.69404  0.28495  0.17406  Biso   1.000  O
  O6       1.0000 0.30585  0.78494  0.32595  Biso   1.000  O
  O7       1.0000 0.30595  0.71502  0.82594  Biso   1.000  O
  O8       1.0000 0.69415  0.21506  0.67405  Biso   1.000  O
  O9       1.0000 0.35215  0.36455  0.48835  Biso   1.000  O
  O10      1.0000 0.64787  0.86455  0.01166  Biso   1.000  O
  O11      1.0000 0.64784  0.63546  0.51166  Biso   1.000  O
  O12      1.0000 0.35219  0.13546  0.98834  Biso   1.000  O
