data_image0
_cell_length_a       11.0206
_cell_length_b       12.029
_cell_length_c       19.2831
_cell_angle_alpha    89.9999
_cell_angle_beta     89.9999
_cell_angle_gamma    90

_symmetry_space_group_name_H-M    "P 1"
_symmetry_int_tables_number       1

loop_
  _symmetry_equiv_pos_as_xyz
  'x, y, z'

loop_
  _atom_site_label
  _atom_site_occupancy
  _atom_site_fract_x
  _atom_site_fract_y
  _atom_site_fract_z
  _atom_site_thermal_displace_type
  _atom_site_B_iso_or_equiv
  _atom_site_type_symbol
  Nd1      1.0000 0.13695  0.33677  0.01266  Biso   1.000  Nd
  Nd2      1.0000 0.86305  0.66323  0.51266  Biso   1.000  Nd
  Nd3      1.0000 0.63695  0.16323  0.51266  Biso   1.000  Nd
  Nd4      1.0000 0.36305  0.83677  0.01266  Biso   1.000  Nd
  Nd5      1.0000 0.61729  0.51963  0.23221  Biso   1.000  Nd
  Nd6      1.0000 0.38271  0.48037  0.73221  Biso   1.000  Nd
  Nd7      1.0000 0.11729  0.98037  0.73221  Biso   1.000  Nd
  Nd8      1.0000 0.88271  0.01963  0.23221  Biso   1.000  Nd
  H1       1.0000 0.35654  0.49223  0.11527  Biso   1.000  H
  H2       1.0000 0.64346  0.50777  0.61527  Biso   1.000  H
  H3       1.0000 0.85653  0.00777  0.61527  Biso   1.000  H
  H4       1.0000 0.14346  0.99224  0.11527  Biso   1.000  H
  H5       1.0000 0.20926  0.24428  0.29605  Biso   1.000  H
  H6       1.0000 0.79075  0.75572  0.79605  Biso   1.000  H
  H7       1.0000 0.70925  0.25572  0.79605  Biso   1.000  H
  H8       1.0000 0.29074  0.74428  0.29605  Biso   1.000  H
  H9       1.0000 0.85601  0.38675  0.11639  Biso   1.000  H
  H10      1.0000 0.14399  0.61326  0.61639  Biso   1.000  H
  H11      1.0000 0.35601  0.11326  0.61639  Biso   1.000  H
  H12      1.0000 0.64399  0.88674  0.11639  Biso   1.000  H
  H13      1.0000 0.01010  0.76554  0.11546  Biso   1.000  H
  H14      1.0000 0.98990  0.23446  0.61547  Biso   1.000  H
  H15      1.0000 0.51010  0.73446  0.61546  Biso   1.000  H
  H16      1.0000 0.48990  0.26554  0.11546  Biso   1.000  H
  H17      1.0000 0.89975  0.39255  0.95282  Biso   1.000  H
  H18      1.0000 0.10025  0.60745  0.45282  Biso   1.000  H
  H19      1.0000 0.39975  0.10744  0.45282  Biso   1.000  H
  H20      1.0000 0.60026  0.89255  0.95282  Biso   1.000  H
  H21      1.0000 0.90316  0.26408  0.94439  Biso   1.000  H
  H22      1.0000 0.09683  0.73592  0.44439  Biso   1.000  H
  H23      1.0000 0.40317  0.23592  0.44439  Biso   1.000  H
  H24      1.0000 0.59684  0.76408  0.94439  Biso   1.000  H
  H25      1.0000 0.08600  0.13686  0.90838  Biso   1.000  H
  H26      1.0000 0.91400  0.86314  0.40838  Biso   1.000  H
  H27      1.0000 0.58600  0.36314  0.40838  Biso   1.000  H
  H28      1.0000 0.41400  0.63686  0.90838  Biso   1.000  H
  H29      1.0000 0.17044  0.09822  0.97275  Biso   1.000  H
  H30      1.0000 0.82956  0.90178  0.47275  Biso   1.000  H
  H31      1.0000 0.67044  0.40178  0.47275  Biso   1.000  H
  H32      1.0000 0.32956  0.59822  0.97275  Biso   1.000  H
  H33      1.0000 0.53360  0.61990  0.09565  Biso   1.000  H
  H34      1.0000 0.46640  0.38010  0.59566  Biso   1.000  H
  H35      1.0000 0.03361  0.88011  0.59565  Biso   1.000  H
  H36      1.0000 0.96640  0.11989  0.09566  Biso   1.000  H
  H37      1.0000 0.59892  0.51503  0.06023  Biso   1.000  H
  H38      1.0000 0.40108  0.48497  0.56023  Biso   1.000  H
  H39      1.0000 0.09893  0.98497  0.56022  Biso   1.000  H
  H40      1.0000 0.90108  0.01503  0.06023  Biso   1.000  H
  C1       1.0000 0.32416  0.43560  0.15532  Biso   1.000  C
  C2       1.0000 0.67584  0.56439  0.65532  Biso   1.000  C
  C3       1.0000 0.82416  0.06440  0.65532  Biso   1.000  C
  C4       1.0000 0.17584  0.93561  0.15532  Biso   1.000  C
  C5       1.0000 0.34973  0.35938  0.26311  Biso   1.000  C
  C6       1.0000 0.65027  0.64062  0.76311  Biso   1.000  C
  C7       1.0000 0.84973  0.14062  0.76311  Biso   1.000  C
  C8       1.0000 0.15027  0.85938  0.26311  Biso   1.000  C
  C9       1.0000 0.24286  0.29850  0.25520  Biso   1.000  C
  C10      1.0000 0.75714  0.70150  0.75520  Biso   1.000  C
  C11      1.0000 0.74286  0.20150  0.75520  Biso   1.000  C
  C12      1.0000 0.25714  0.79850  0.25520  Biso   1.000  C
  C13      1.0000 0.18453  0.30647  0.19153  Biso   1.000  C
  C14      1.0000 0.81547  0.69352  0.69153  Biso   1.000  C
  C15      1.0000 0.68453  0.19352  0.69153  Biso   1.000  C
  C16      1.0000 0.31547  0.80648  0.19153  Biso   1.000  C
  C17      1.0000 0.08169  0.22861  0.17282  Biso   1.000  C
  C18      1.0000 0.91831  0.77138  0.67282  Biso   1.000  C
  C19      1.0000 0.58169  0.27139  0.67282  Biso   1.000  C
  C20      1.0000 0.41831  0.72862  0.17282  Biso   1.000  C
  C21      1.0000 0.42402  0.35041  0.32889  Biso   1.000  C
  C22      1.0000 0.57598  0.64959  0.82889  Biso   1.000  C
  C23      1.0000 0.92402  0.14959  0.82889  Biso   1.000  C
  C24      1.0000 0.07598  0.85041  0.32889  Biso   1.000  C
  C25      1.0000 0.89022  0.47166  0.11632  Biso   1.000  C
  C26      1.0000 0.10977  0.52834  0.61632  Biso   1.000  C
  C27      1.0000 0.39022  0.02834  0.61632  Biso   1.000  C
  C28      1.0000 0.60978  0.97166  0.11632  Biso   1.000  C
  C29      1.0000 0.86811  0.65362  0.14944  Biso   1.000  C
  C30      1.0000 0.13189  0.34638  0.64945  Biso   1.000  C
  C31      1.0000 0.36811  0.84638  0.64944  Biso   1.000  C
  C32      1.0000 0.63189  0.15362  0.14945  Biso   1.000  C
  C33      1.0000 0.97598  0.68081  0.11601  Biso   1.000  C
  C34      1.0000 0.02403  0.31919  0.61601  Biso   1.000  C
  C35      1.0000 0.47598  0.81919  0.61600  Biso   1.000  C
  C36      1.0000 0.52403  0.18081  0.11601  Biso   1.000  C
  C37      1.0000 0.03840  0.59474  0.08361  Biso   1.000  C
  C38      1.0000 0.96160  0.40526  0.58361  Biso   1.000  C
  C39      1.0000 0.53840  0.90526  0.58361  Biso   1.000  C
  C40      1.0000 0.46161  0.09474  0.08361  Biso   1.000  C
  C41      1.0000 0.16078  0.61424  0.05040  Biso   1.000  C
  C42      1.0000 0.83922  0.38577  0.55040  Biso   1.000  C
  C43      1.0000 0.66078  0.88576  0.55040  Biso   1.000  C
  C44      1.0000 0.33922  0.11424  0.05040  Biso   1.000  C
  C45      1.0000 0.79364  0.74140  0.18681  Biso   1.000  C
  C46      1.0000 0.20637  0.25860  0.68682  Biso   1.000  C
  C47      1.0000 0.29363  0.75860  0.68681  Biso   1.000  C
  C48      1.0000 0.70637  0.24139  0.18682  Biso   1.000  C
  C49      1.0000 0.80310  0.56816  0.35860  Biso   1.000  C
  C50      1.0000 0.19691  0.43184  0.85860  Biso   1.000  C
  C51      1.0000 0.30309  0.93185  0.85860  Biso   1.000  C
  C52      1.0000 0.69690  0.06815  0.35860  Biso   1.000  C
  C53      1.0000 0.67910  0.61577  0.38488  Biso   1.000  C
  C54      1.0000 0.32090  0.38423  0.88489  Biso   1.000  C
  C55      1.0000 0.17910  0.88423  0.88488  Biso   1.000  C
  C56      1.0000 0.82090  0.11577  0.38488  Biso   1.000  C
  N1       1.0000 0.22296  0.37801  0.14236  Biso   1.000  N
  N2       1.0000 0.77704  0.62199  0.64236  Biso   1.000  N
  N3       1.0000 0.72296  0.12199  0.64236  Biso   1.000  N
  N4       1.0000 0.27704  0.87802  0.14236  Biso   1.000  N
  N5       1.0000 0.39230  0.42571  0.21255  Biso   1.000  N
  N6       1.0000 0.60770  0.57429  0.71255  Biso   1.000  N
  N7       1.0000 0.89229  0.07429  0.71255  Biso   1.000  N
  N8       1.0000 0.10770  0.92571  0.21255  Biso   1.000  N
  N9       1.0000 0.99464  0.49040  0.08235  Biso   1.000  N
  N10      1.0000 0.00536  0.50959  0.58235  Biso   1.000  N
  N11      1.0000 0.49464  0.00960  0.58235  Biso   1.000  N
  N12      1.0000 0.50537  0.99040  0.08235  Biso   1.000  N
  N13      1.0000 0.82573  0.54852  0.15047  Biso   1.000  N
  N14      1.0000 0.17427  0.45148  0.65047  Biso   1.000  N
  N15      1.0000 0.32573  0.95148  0.65047  Biso   1.000  N
  N16      1.0000 0.67427  0.04852  0.15047  Biso   1.000  N
  O1       1.0000 0.03770  0.23796  0.11149  Biso   1.000  O
  O2       1.0000 0.96230  0.76204  0.61149  Biso   1.000  O
  O3       1.0000 0.53770  0.26204  0.61149  Biso   1.000  O
  O4       1.0000 0.46230  0.73796  0.11149  Biso   1.000  O
  O5       1.0000 0.05146  0.15787  0.21729  Biso   1.000  O
  O6       1.0000 0.94854  0.84213  0.71729  Biso   1.000  O
  O7       1.0000 0.55146  0.34213  0.71729  Biso   1.000  O
  O8       1.0000 0.44854  0.65787  0.21729  Biso   1.000  O
  O9       1.0000 0.53426  0.38302  0.32521  Biso   1.000  O
  O10      1.0000 0.46574  0.61698  0.82521  Biso   1.000  O
  O11      1.0000 0.03425  0.11698  0.82521  Biso   1.000  O
  O12      1.0000 0.96574  0.88302  0.32520  Biso   1.000  O
  O13      1.0000 0.36882  0.31204  0.38054  Biso   1.000  O
  O14      1.0000 0.63118  0.68796  0.88054  Biso   1.000  O
  O15      1.0000 0.86882  0.18797  0.88055  Biso   1.000  O
  O16      1.0000 0.13117  0.81204  0.38054  Biso   1.000  O
  O17      1.0000 0.20845  0.53342  0.01735  Biso   1.000  O
  O18      1.0000 0.79155  0.46658  0.51735  Biso   1.000  O
  O19      1.0000 0.70845  0.96659  0.51735  Biso   1.000  O
  O20      1.0000 0.29155  0.03341  0.01735  Biso   1.000  O
  O21      1.0000 0.20767  0.70809  0.06001  Biso   1.000  O
  O22      1.0000 0.79233  0.29190  0.56001  Biso   1.000  O
  O23      1.0000 0.70767  0.79191  0.56001  Biso   1.000  O
  O24      1.0000 0.29233  0.20809  0.06001  Biso   1.000  O
  O25      1.0000 0.69766  0.70979  0.21605  Biso   1.000  O
  O26      1.0000 0.30234  0.29022  0.71605  Biso   1.000  O
  O27      1.0000 0.19767  0.79021  0.71604  Biso   1.000  O
  O28      1.0000 0.80233  0.20979  0.21605  Biso   1.000  O
  O29      1.0000 0.83422  0.84012  0.18407  Biso   1.000  O
  O30      1.0000 0.16578  0.15989  0.68407  Biso   1.000  O
  O31      1.0000 0.33423  0.65988  0.68407  Biso   1.000  O
  O32      1.0000 0.66578  0.34012  0.18407  Biso   1.000  O
  O33      1.0000 0.89527  0.58496  0.39656  Biso   1.000  O
  O34      1.0000 0.10473  0.41504  0.89656  Biso   1.000  O
  O35      1.0000 0.39527  0.91504  0.89656  Biso   1.000  O
  O36      1.0000 0.60472  0.08496  0.39656  Biso   1.000  O
  O37      1.0000 0.80130  0.51600  0.30157  Biso   1.000  O
  O38      1.0000 0.19870  0.48400  0.80157  Biso   1.000  O
  O39      1.0000 0.30130  0.98400  0.80157  Biso   1.000  O
  O40      1.0000 0.69870  0.01600  0.30157  Biso   1.000  O
  O41      1.0000 0.67755  0.65565  0.44574  Biso   1.000  O
  O42      1.0000 0.32245  0.34435  0.94575  Biso   1.000  O
  O43      1.0000 0.17755  0.84435  0.94575  Biso   1.000  O
  O44      1.0000 0.82244  0.15565  0.44575  Biso   1.000  O
  O45      1.0000 0.59016  0.60927  0.34389  Biso   1.000  O
  O46      1.0000 0.40985  0.39074  0.84390  Biso   1.000  O
  O47      1.0000 0.09016  0.89073  0.84389  Biso   1.000  O
  O48      1.0000 0.90984  0.10927  0.34389  Biso   1.000  O
  O49      1.0000 0.91663  0.32555  0.97955  Biso   1.000  O
  O50      1.0000 0.08337  0.67445  0.47955  Biso   1.000  O
  O51      1.0000 0.41663  0.17445  0.47956  Biso   1.000  O
  O52      1.0000 0.58337  0.82555  0.97955  Biso   1.000  O
  O53      1.0000 0.10930  0.15345  0.95742  Biso   1.000  O
  O54      1.0000 0.89070  0.84655  0.45742  Biso   1.000  O
  O55      1.0000 0.60930  0.34655  0.45742  Biso   1.000  O
  O56      1.0000 0.39070  0.65345  0.95742  Biso   1.000  O
  O57      1.0000 0.56502  0.54242  0.10338  Biso   1.000  O
  O58      1.0000 0.43498  0.45758  0.60338  Biso   1.000  O
  O59      1.0000 0.06502  0.95759  0.60337  Biso   1.000  O
  O60      1.0000 0.93498  0.04242  0.10338  Biso   1.000  O
