data_image0
_cell_length_a       11.1062
_cell_length_b       12.191
_cell_length_c       19.6177
_cell_angle_alpha    90.0004
_cell_angle_beta     90.0002
_cell_angle_gamma    90.0003

_symmetry_space_group_name_H-M    "P 1"
_symmetry_int_tables_number       1

loop_
  _symmetry_equiv_pos_as_xyz
  'x, y, z'

loop_
  _atom_site_label
  _atom_site_occupancy
  _atom_site_fract_x
  _atom_site_fract_y
  _atom_site_fract_z
  _atom_site_thermal_displace_type
  _atom_site_B_iso_or_equiv
  _atom_site_type_symbol
  La1      1.0000 0.63708  0.16619  0.11974  Biso   1.000  La
  La2      1.0000 0.36291  0.83381  0.61974  Biso   1.000  La
  La3      1.0000 0.13708  0.33381  0.61975  Biso   1.000  La
  La4      1.0000 0.86292  0.66619  0.11974  Biso   1.000  La
  La5      1.0000 0.11847  0.98406  0.34014  Biso   1.000  La
  La6      1.0000 0.88153  0.01594  0.84015  Biso   1.000  La
  La7      1.0000 0.61847  0.51594  0.84015  Biso   1.000  La
  La8      1.0000 0.38153  0.48406  0.34015  Biso   1.000  La
  H1       1.0000 0.85554  0.01320  0.22635  Biso   1.000  H
  H2       1.0000 0.14448  0.98680  0.72635  Biso   1.000  H
  H3       1.0000 0.35554  0.48681  0.72637  Biso   1.000  H
  H4       1.0000 0.64446  0.51320  0.22636  Biso   1.000  H
  H5       1.0000 0.71729  0.27005  0.39925  Biso   1.000  H
  H6       1.0000 0.28270  0.72995  0.89925  Biso   1.000  H
  H7       1.0000 0.21728  0.22995  0.89926  Biso   1.000  H
  H8       1.0000 0.78271  0.77005  0.39925  Biso   1.000  H
  H9       1.0000 0.36166  0.11382  0.22873  Biso   1.000  H
  H10      1.0000 0.63834  0.88619  0.72872  Biso   1.000  H
  H11      1.0000 0.86166  0.38618  0.72874  Biso   1.000  H
  H12      1.0000 0.13834  0.61382  0.22873  Biso   1.000  H
  H13      1.0000 0.51043  0.73891  0.22246  Biso   1.000  H
  H14      1.0000 0.48957  0.26109  0.72245  Biso   1.000  H
  H15      1.0000 0.01043  0.76109  0.72246  Biso   1.000  H
  H16      1.0000 0.98957  0.23891  0.22245  Biso   1.000  H
  H17      1.0000 0.37915  0.11010  0.07507  Biso   1.000  H
  H18      1.0000 0.62084  0.88990  0.57508  Biso   1.000  H
  H19      1.0000 0.87915  0.38990  0.57507  Biso   1.000  H
  H20      1.0000 0.12085  0.61010  0.07507  Biso   1.000  H
  H21      1.0000 0.40218  0.23015  0.05041  Biso   1.000  H
  H22      1.0000 0.59782  0.76985  0.55041  Biso   1.000  H
  H23      1.0000 0.90217  0.26985  0.55041  Biso   1.000  H
  H24      1.0000 0.09783  0.73015  0.05041  Biso   1.000  H
  H25      1.0000 0.58648  0.36505  0.01501  Biso   1.000  H
  H26      1.0000 0.41353  0.63495  0.51502  Biso   1.000  H
  H27      1.0000 0.08647  0.13495  0.51501  Biso   1.000  H
  H28      1.0000 0.91352  0.86505  0.01501  Biso   1.000  H
  H29      1.0000 0.66903  0.40572  0.07857  Biso   1.000  H
  H30      1.0000 0.33096  0.59429  0.57857  Biso   1.000  H
  H31      1.0000 0.16904  0.09429  0.57857  Biso   1.000  H
  H32      1.0000 0.83096  0.90572  0.07858  Biso   1.000  H
  H33      1.0000 0.03340  0.88118  0.20402  Biso   1.000  H
  H34      1.0000 0.96659  0.11881  0.70403  Biso   1.000  H
  H35      1.0000 0.53341  0.61882  0.70402  Biso   1.000  H
  H36      1.0000 0.46660  0.38119  0.20402  Biso   1.000  H
  H37      1.0000 0.09645  0.98200  0.16606  Biso   1.000  H
  H38      1.0000 0.90354  0.01800  0.66606  Biso   1.000  H
  H39      1.0000 0.59646  0.51800  0.66606  Biso   1.000  H
  H40      1.0000 0.40354  0.48200  0.16606  Biso   1.000  H
  C1       1.0000 0.82479  0.07150  0.26474  Biso   1.000  C
  C2       1.0000 0.17521  0.92849  0.76474  Biso   1.000  C
  C3       1.0000 0.32479  0.42849  0.76475  Biso   1.000  C
  C4       1.0000 0.67521  0.57151  0.26474  Biso   1.000  C
  C5       1.0000 0.85385  0.15252  0.36879  Biso   1.000  C
  C6       1.0000 0.14614  0.84747  0.86879  Biso   1.000  C
  C7       1.0000 0.35385  0.34747  0.86880  Biso   1.000  C
  C8       1.0000 0.64616  0.65252  0.36879  Biso   1.000  C
  C9       1.0000 0.74873  0.21361  0.36022  Biso   1.000  C
  C10      1.0000 0.25128  0.78639  0.86022  Biso   1.000  C
  C11      1.0000 0.24872  0.28639  0.86023  Biso   1.000  C
  C12      1.0000 0.75128  0.71361  0.36022  Biso   1.000  C
  C13      1.0000 0.68850  0.20188  0.29857  Biso   1.000  C
  C14      1.0000 0.31150  0.79812  0.79857  Biso   1.000  C
  C15      1.0000 0.18850  0.29812  0.79857  Biso   1.000  C
  C16      1.0000 0.81150  0.70188  0.29857  Biso   1.000  C
  C17      1.0000 0.58502  0.27703  0.27998  Biso   1.000  C
  C18      1.0000 0.41498  0.72297  0.77998  Biso   1.000  C
  C19      1.0000 0.08502  0.22297  0.77998  Biso   1.000  C
  C20      1.0000 0.91498  0.77704  0.27998  Biso   1.000  C
  C21      1.0000 0.92796  0.16295  0.43335  Biso   1.000  C
  C22      1.0000 0.07205  0.83704  0.93335  Biso   1.000  C
  C23      1.0000 0.42795  0.33704  0.93336  Biso   1.000  C
  C24      1.0000 0.57206  0.66295  0.43335  Biso   1.000  C
  C25      1.0000 0.39435  0.02958  0.22701  Biso   1.000  C
  C26      1.0000 0.60565  0.97042  0.72701  Biso   1.000  C
  C27      1.0000 0.89435  0.47041  0.72702  Biso   1.000  C
  C28      1.0000 0.10565  0.52959  0.22701  Biso   1.000  C
  C29      1.0000 0.37041  0.84910  0.25714  Biso   1.000  C
  C30      1.0000 0.62959  0.15089  0.75714  Biso   1.000  C
  C31      1.0000 0.87040  0.65089  0.75714  Biso   1.000  C
  C32      1.0000 0.12959  0.34911  0.25714  Biso   1.000  C
  C33      1.0000 0.47732  0.82268  0.22391  Biso   1.000  C
  C34      1.0000 0.52269  0.17732  0.72392  Biso   1.000  C
  C35      1.0000 0.97731  0.67732  0.72391  Biso   1.000  C
  C36      1.0000 0.02268  0.32268  0.22391  Biso   1.000  C
  C37      1.0000 0.53934  0.90791  0.19229  Biso   1.000  C
  C38      1.0000 0.46065  0.09209  0.69230  Biso   1.000  C
  C39      1.0000 0.03933  0.59209  0.69229  Biso   1.000  C
  C40      1.0000 0.96066  0.40791  0.19229  Biso   1.000  C
  C41      1.0000 0.65981  0.88858  0.15820  Biso   1.000  C
  C42      1.0000 0.34018  0.11142  0.65821  Biso   1.000  C
  C43      1.0000 0.15980  0.61143  0.65820  Biso   1.000  C
  C44      1.0000 0.84019  0.38858  0.15820  Biso   1.000  C
  C45      1.0000 0.29444  0.76196  0.29230  Biso   1.000  C
  C46      1.0000 0.70556  0.23804  0.79229  Biso   1.000  C
  C47      1.0000 0.79444  0.73804  0.79230  Biso   1.000  C
  C48      1.0000 0.20555  0.26196  0.29230  Biso   1.000  C
  C49      1.0000 0.17972  0.88522  0.49203  Biso   1.000  C
  C50      1.0000 0.82031  0.11477  0.99204  Biso   1.000  C
  C51      1.0000 0.67971  0.61478  0.99204  Biso   1.000  C
  C52      1.0000 0.32028  0.38522  0.49204  Biso   1.000  C
  C53      1.0000 0.30382  0.93034  0.46656  Biso   1.000  C
  C54      1.0000 0.69621  0.06966  0.96657  Biso   1.000  C
  C55      1.0000 0.80380  0.56966  0.96657  Biso   1.000  C
  C56      1.0000 0.19619  0.43035  0.46656  Biso   1.000  C
  N1       1.0000 0.72479  0.12853  0.25141  Biso   1.000  N
  N2       1.0000 0.27521  0.87147  0.75141  Biso   1.000  N
  N3       1.0000 0.22479  0.37147  0.75141  Biso   1.000  N
  N4       1.0000 0.77521  0.62853  0.25141  Biso   1.000  N
  N5       1.0000 0.89334  0.08310  0.32049  Biso   1.000  N
  N6       1.0000 0.10665  0.91689  0.82049  Biso   1.000  N
  N7       1.0000 0.39334  0.41689  0.82050  Biso   1.000  N
  N8       1.0000 0.60667  0.58311  0.32049  Biso   1.000  N
  N9       1.0000 0.49675  0.01122  0.19249  Biso   1.000  N
  N10      1.0000 0.50323  0.98878  0.69250  Biso   1.000  N
  N11      1.0000 0.99674  0.48878  0.69249  Biso   1.000  N
  N12      1.0000 0.00324  0.51122  0.19249  Biso   1.000  N
  N13      1.0000 0.32967  0.95314  0.25956  Biso   1.000  N
  N14      1.0000 0.67034  0.04686  0.75955  Biso   1.000  N
  N15      1.0000 0.82966  0.54685  0.75956  Biso   1.000  N
  N16      1.0000 0.17033  0.45315  0.25956  Biso   1.000  N
  O1       1.0000 0.54011  0.26542  0.22022  Biso   1.000  O
  O2       1.0000 0.45989  0.73459  0.72022  Biso   1.000  O
  O3       1.0000 0.04012  0.23458  0.72022  Biso   1.000  O
  O4       1.0000 0.95989  0.76542  0.22022  Biso   1.000  O
  O5       1.0000 0.55475  0.34783  0.32310  Biso   1.000  O
  O6       1.0000 0.44527  0.65218  0.82311  Biso   1.000  O
  O7       1.0000 0.05474  0.15217  0.82310  Biso   1.000  O
  O8       1.0000 0.94526  0.84783  0.32310  Biso   1.000  O
  O9       1.0000 0.03502  0.12445  0.43167  Biso   1.000  O
  O10      1.0000 0.96498  0.87553  0.93169  Biso   1.000  O
  O11      1.0000 0.53502  0.37553  0.93168  Biso   1.000  O
  O12      1.0000 0.46499  0.62445  0.43168  Biso   1.000  O
  O13      1.0000 0.87468  0.20739  0.48248  Biso   1.000  O
  O14      1.0000 0.12535  0.79261  0.98249  Biso   1.000  O
  O15      1.0000 0.37466  0.29261  0.98249  Biso   1.000  O
  O16      1.0000 0.62533  0.70739  0.48249  Biso   1.000  O
  O17      1.0000 0.70776  0.96859  0.12635  Biso   1.000  O
  O18      1.0000 0.29223  0.03141  0.62636  Biso   1.000  O
  O19      1.0000 0.20776  0.53141  0.62636  Biso   1.000  O
  O20      1.0000 0.79224  0.46859  0.12635  Biso   1.000  O
  O21      1.0000 0.70505  0.79500  0.16597  Biso   1.000  O
  O22      1.0000 0.29494  0.20500  0.66597  Biso   1.000  O
  O23      1.0000 0.20504  0.70501  0.66596  Biso   1.000  O
  O24      1.0000 0.79496  0.29500  0.16596  Biso   1.000  O
  O25      1.0000 0.19871  0.79327  0.32051  Biso   1.000  O
  O26      1.0000 0.80129  0.20672  0.82051  Biso   1.000  O
  O27      1.0000 0.69871  0.70672  0.82051  Biso   1.000  O
  O28      1.0000 0.30129  0.29329  0.32051  Biso   1.000  O
  O29      1.0000 0.33336  0.66411  0.28905  Biso   1.000  O
  O30      1.0000 0.66666  0.33589  0.78905  Biso   1.000  O
  O31      1.0000 0.83334  0.83589  0.78905  Biso   1.000  O
  O32      1.0000 0.16665  0.16411  0.28906  Biso   1.000  O
  O33      1.0000 0.09163  0.89467  0.45177  Biso   1.000  O
  O34      1.0000 0.90840  0.10530  0.95178  Biso   1.000  O
  O35      1.0000 0.59162  0.60531  0.95178  Biso   1.000  O
  O36      1.0000 0.40837  0.39467  0.45177  Biso   1.000  O
  O37      1.0000 0.17727  0.84440  0.55144  Biso   1.000  O
  O38      1.0000 0.82275  0.15561  0.05144  Biso   1.000  O
  O39      1.0000 0.67726  0.65561  0.05144  Biso   1.000  O
  O40      1.0000 0.32272  0.34440  0.55144  Biso   1.000  O
  O41      1.0000 0.30328  0.98207  0.41057  Biso   1.000  O
  O42      1.0000 0.69675  0.01793  0.91057  Biso   1.000  O
  O43      1.0000 0.80326  0.51793  0.91057  Biso   1.000  O
  O44      1.0000 0.19673  0.48208  0.41057  Biso   1.000  O
  O45      1.0000 0.39442  0.91228  0.50418  Biso   1.000  O
  O46      1.0000 0.60560  0.08773  0.00418  Biso   1.000  O
  O47      1.0000 0.89440  0.58772  0.00418  Biso   1.000  O
  O48      1.0000 0.10559  0.41230  0.50418  Biso   1.000  O
  O49      1.0000 0.41153  0.17956  0.09123  Biso   1.000  O
  O50      1.0000 0.58847  0.82043  0.59124  Biso   1.000  O
  O51      1.0000 0.91152  0.32044  0.59123  Biso   1.000  O
  O52      1.0000 0.08848  0.67956  0.09123  Biso   1.000  O
  O53      1.0000 0.60812  0.35147  0.06378  Biso   1.000  O
  O54      1.0000 0.39189  0.64853  0.56379  Biso   1.000  O
  O55      1.0000 0.10811  0.14853  0.56378  Biso   1.000  O
  O56      1.0000 0.89188  0.85147  0.06378  Biso   1.000  O
  O57      1.0000 0.06610  0.95747  0.20984  Biso   1.000  O
  O58      1.0000 0.93390  0.04252  0.70984  Biso   1.000  O
  O59      1.0000 0.56609  0.54253  0.70984  Biso   1.000  O
  O60      1.0000 0.43391  0.45747  0.20984  Biso   1.000  O
