data_image0
_cell_length_a       3.75802
_cell_length_b       7.26379
_cell_length_c       12.5408
_cell_angle_alpha    76.1706
_cell_angle_beta     89.3326
_cell_angle_gamma    83.4581

_symmetry_space_group_name_H-M    "P 1"
_symmetry_int_tables_number       1

loop_
  _symmetry_equiv_pos_as_xyz
  'x, y, z'

loop_
  _atom_site_label
  _atom_site_occupancy
  _atom_site_fract_x
  _atom_site_fract_y
  _atom_site_fract_z
  _atom_site_thermal_displace_type
  _atom_site_B_iso_or_equiv
  _atom_site_type_symbol
  Cu1      1.0000 0.99999  0.99998  0.00001  Biso   1.000  Cu
  H1       1.0000 0.84994  0.64489  0.94781  Biso   1.000  H
  H2       1.0000 0.15008  0.35510  0.05218  Biso   1.000  H
  H3       1.0000 0.97568  0.48363  0.79499  Biso   1.000  H
  H4       1.0000 0.02433  0.51637  0.20500  Biso   1.000  H
  H5       1.0000 0.35222  0.00523  0.60748  Biso   1.000  H
  H6       1.0000 0.64777  0.99477  0.39252  Biso   1.000  H
  H7       1.0000 0.20135  0.14676  0.76991  Biso   1.000  H
  H8       1.0000 0.79864  0.85322  0.23009  Biso   1.000  H
  H9       1.0000 0.35150  0.39364  0.55828  Biso   1.000  H
  H10      1.0000 0.64852  0.60637  0.44170  Biso   1.000  H
  C1       1.0000 0.96281  0.71847  0.87116  Biso   1.000  C
  C2       1.0000 0.03717  0.28151  0.12885  Biso   1.000  C
  C3       1.0000 0.03218  0.63039  0.78496  Biso   1.000  C
  C4       1.0000 0.96782  0.36961  0.21505  Biso   1.000  C
  C5       1.0000 0.18326  0.73194  0.68966  Biso   1.000  C
  C6       1.0000 0.81671  0.26808  0.31035  Biso   1.000  C
  C7       1.0000 0.23815  0.92227  0.68125  Biso   1.000  C
  C8       1.0000 0.76185  0.07774  0.31876  Biso   1.000  C
  C9       1.0000 0.15646  0.00109  0.77050  Biso   1.000  C
  C10      1.0000 0.84354  0.99892  0.22950  Biso   1.000  C
  C11      1.0000 0.30657  0.63629  0.60133  Biso   1.000  C
  C12      1.0000 0.69346  0.36371  0.39865  Biso   1.000  C
  N1       1.0000 0.03202  0.89823  0.86471  Biso   1.000  N
  N2       1.0000 0.96799  0.10174  0.13528  Biso   1.000  N
  Cl1      1.0000 0.41705  0.75405  0.08588  Biso   1.000  Cl
  Cl2      1.0000 0.58296  0.24595  0.91413  Biso   1.000  Cl
  O1       1.0000 0.23082  0.45922  0.61664  Biso   1.000  O
  O2       1.0000 0.76913  0.54077  0.38337  Biso   1.000  O
  O3       1.0000 0.47785  0.71873  0.52144  Biso   1.000  O
  O4       1.0000 0.52219  0.28131  0.47854  Biso   1.000  O
