data_image0
_cell_length_a       11.0387
_cell_length_b       12.0946
_cell_length_c       19.3864
_cell_angle_alpha    90.0001
_cell_angle_beta     90
_cell_angle_gamma    89.9998

_symmetry_space_group_name_H-M    "P 1"
_symmetry_int_tables_number       1

loop_
  _symmetry_equiv_pos_as_xyz
  'x, y, z'

loop_
  _atom_site_label
  _atom_site_occupancy
  _atom_site_fract_x
  _atom_site_fract_y
  _atom_site_fract_z
  _atom_site_thermal_displace_type
  _atom_site_B_iso_or_equiv
  _atom_site_type_symbol
  Pr1      1.0000 0.86333  0.66420  0.64691  Biso   1.000  Pr
  Pr2      1.0000 0.13667  0.33580  0.14690  Biso   1.000  Pr
  Pr3      1.0000 0.36333  0.83580  0.14690  Biso   1.000  Pr
  Pr4      1.0000 0.63667  0.16420  0.64690  Biso   1.000  Pr
  Pr5      1.0000 0.38231  0.48195  0.86617  Biso   1.000  Pr
  Pr6      1.0000 0.61769  0.51805  0.36617  Biso   1.000  Pr
  Pr7      1.0000 0.88231  0.01805  0.36617  Biso   1.000  Pr
  Pr8      1.0000 0.11769  0.98195  0.86617  Biso   1.000  Pr
  H1       1.0000 0.64382  0.51001  0.75047  Biso   1.000  H
  H2       1.0000 0.35618  0.48999  0.25047  Biso   1.000  H
  H3       1.0000 0.14382  0.98999  0.25047  Biso   1.000  H
  H4       1.0000 0.85618  0.01001  0.75047  Biso   1.000  H
  H5       1.0000 0.78884  0.75917  0.92939  Biso   1.000  H
  H6       1.0000 0.21116  0.24083  0.42939  Biso   1.000  H
  H7       1.0000 0.28885  0.74084  0.42939  Biso   1.000  H
  H8       1.0000 0.71115  0.25917  0.92939  Biso   1.000  H
  H9       1.0000 0.14262  0.61355  0.75173  Biso   1.000  H
  H10      1.0000 0.85738  0.38645  0.25173  Biso   1.000  H
  H11      1.0000 0.64262  0.88645  0.25173  Biso   1.000  H
  H12      1.0000 0.35738  0.11355  0.75173  Biso   1.000  H
  H13      1.0000 0.98997  0.23650  0.74946  Biso   1.000  H
  H14      1.0000 0.01003  0.76349  0.24947  Biso   1.000  H
  H15      1.0000 0.48997  0.26350  0.24946  Biso   1.000  H
  H16      1.0000 0.51003  0.73650  0.74946  Biso   1.000  H
  H17      1.0000 0.10739  0.60834  0.59135  Biso   1.000  H
  H18      1.0000 0.89260  0.39166  0.09135  Biso   1.000  H
  H19      1.0000 0.60740  0.89166  0.09135  Biso   1.000  H
  H20      1.0000 0.39260  0.10835  0.59135  Biso   1.000  H
  H21      1.0000 0.09782  0.73500  0.57830  Biso   1.000  H
  H22      1.0000 0.90218  0.26500  0.07830  Biso   1.000  H
  H23      1.0000 0.59781  0.76499  0.07829  Biso   1.000  H
  H24      1.0000 0.40219  0.23501  0.57829  Biso   1.000  H
  H25      1.0000 0.91409  0.86391  0.54250  Biso   1.000  H
  H26      1.0000 0.08591  0.13609  0.04250  Biso   1.000  H
  H27      1.0000 0.41408  0.63609  0.04250  Biso   1.000  H
  H28      1.0000 0.58592  0.36391  0.54250  Biso   1.000  H
  H29      1.0000 0.83022  0.90311  0.60657  Biso   1.000  H
  H30      1.0000 0.16978  0.09689  0.10657  Biso   1.000  H
  H31      1.0000 0.33021  0.59689  0.10657  Biso   1.000  H
  H32      1.0000 0.66979  0.40311  0.60657  Biso   1.000  H
  H33      1.0000 0.46694  0.38045  0.73021  Biso   1.000  H
  H34      1.0000 0.53306  0.61955  0.23021  Biso   1.000  H
  H35      1.0000 0.96694  0.11955  0.23021  Biso   1.000  H
  H36      1.0000 0.03306  0.88045  0.73021  Biso   1.000  H
  H37      1.0000 0.40379  0.48393  0.69316  Biso   1.000  H
  H38      1.0000 0.59621  0.51607  0.19315  Biso   1.000  H
  H39      1.0000 0.90379  0.01608  0.19316  Biso   1.000  H
  H40      1.0000 0.09621  0.98392  0.69316  Biso   1.000  H
  C1       1.0000 0.67590  0.56680  0.79014  Biso   1.000  C
  C2       1.0000 0.32410  0.43320  0.29014  Biso   1.000  C
  C3       1.0000 0.17590  0.93321  0.29014  Biso   1.000  C
  C4       1.0000 0.82410  0.06680  0.79014  Biso   1.000  C
  C5       1.0000 0.64931  0.64388  0.89692  Biso   1.000  C
  C6       1.0000 0.35069  0.35612  0.39692  Biso   1.000  C
  C7       1.0000 0.14932  0.85612  0.39692  Biso   1.000  C
  C8       1.0000 0.85068  0.14388  0.89692  Biso   1.000  C
  C9       1.0000 0.75584  0.70461  0.88897  Biso   1.000  C
  C10      1.0000 0.24416  0.29539  0.38896  Biso   1.000  C
  C11      1.0000 0.25586  0.79540  0.38897  Biso   1.000  C
  C12      1.0000 0.74415  0.20460  0.88897  Biso   1.000  C
  C13      1.0000 0.81475  0.69587  0.82587  Biso   1.000  C
  C14      1.0000 0.18525  0.30414  0.32587  Biso   1.000  C
  C15      1.0000 0.31476  0.80414  0.32587  Biso   1.000  C
  C16      1.0000 0.68524  0.19587  0.82587  Biso   1.000  C
  C17      1.0000 0.91759  0.77314  0.80728  Biso   1.000  C
  C18      1.0000 0.08241  0.22686  0.30727  Biso   1.000  C
  C19      1.0000 0.41759  0.72686  0.30727  Biso   1.000  C
  C20      1.0000 0.58241  0.27314  0.80727  Biso   1.000  C
  C21      1.0000 0.57500  0.65315  0.96229  Biso   1.000  C
  C22      1.0000 0.42500  0.34685  0.46229  Biso   1.000  C
  C23      1.0000 0.07501  0.84685  0.46230  Biso   1.000  C
  C24      1.0000 0.92499  0.15315  0.96230  Biso   1.000  C
  C25      1.0000 0.10884  0.52892  0.75126  Biso   1.000  C
  C26      1.0000 0.89116  0.47108  0.25125  Biso   1.000  C
  C27      1.0000 0.60883  0.97108  0.25125  Biso   1.000  C
  C28      1.0000 0.39117  0.02892  0.75125  Biso   1.000  C
  C29      1.0000 0.13143  0.34769  0.78356  Biso   1.000  C
  C30      1.0000 0.86857  0.65231  0.28356  Biso   1.000  C
  C31      1.0000 0.63143  0.15231  0.28356  Biso   1.000  C
  C32      1.0000 0.36857  0.84769  0.78356  Biso   1.000  C
  C33      1.0000 0.02379  0.32077  0.75024  Biso   1.000  C
  C34      1.0000 0.97621  0.67923  0.25024  Biso   1.000  C
  C35      1.0000 0.52379  0.17923  0.25024  Biso   1.000  C
  C36      1.0000 0.47621  0.82077  0.75024  Biso   1.000  C
  C37      1.0000 0.96142  0.40636  0.71809  Biso   1.000  C
  C38      1.0000 0.03858  0.59364  0.21809  Biso   1.000  C
  C39      1.0000 0.46142  0.09364  0.21809  Biso   1.000  C
  C40      1.0000 0.53858  0.90636  0.71809  Biso   1.000  C
  C41      1.0000 0.83959  0.38667  0.68466  Biso   1.000  C
  C42      1.0000 0.16042  0.61333  0.18466  Biso   1.000  C
  C43      1.0000 0.33959  0.11334  0.18466  Biso   1.000  C
  C44      1.0000 0.66042  0.88666  0.68466  Biso   1.000  C
  C45      1.0000 0.20620  0.26000  0.82012  Biso   1.000  C
  C46      1.0000 0.79380  0.74000  0.32012  Biso   1.000  C
  C47      1.0000 0.70620  0.24000  0.32012  Biso   1.000  C
  C48      1.0000 0.29380  0.76000  0.82012  Biso   1.000  C
  C49      1.0000 0.32075  0.38474  0.01888  Biso   1.000  C
  C50      1.0000 0.67925  0.61526  0.51888  Biso   1.000  C
  C51      1.0000 0.82075  0.11527  0.51888  Biso   1.000  C
  C52      1.0000 0.17925  0.88473  0.01888  Biso   1.000  C
  C53      1.0000 0.19631  0.43111  0.99278  Biso   1.000  C
  C54      1.0000 0.80369  0.56888  0.49278  Biso   1.000  C
  C55      1.0000 0.69632  0.06889  0.49277  Biso   1.000  C
  C56      1.0000 0.30368  0.93111  0.99278  Biso   1.000  C
  N1       1.0000 0.77689  0.62408  0.77719  Biso   1.000  N
  N2       1.0000 0.22311  0.37592  0.27719  Biso   1.000  N
  N3       1.0000 0.27690  0.87592  0.27719  Biso   1.000  N
  N4       1.0000 0.72310  0.12408  0.77719  Biso   1.000  N
  N5       1.0000 0.60751  0.57711  0.84688  Biso   1.000  N
  N6       1.0000 0.39249  0.42289  0.34688  Biso   1.000  N
  N7       1.0000 0.10752  0.92289  0.34688  Biso   1.000  N
  N8       1.0000 0.89248  0.07711  0.84688  Biso   1.000  N
  N9       1.0000 0.00493  0.51023  0.71718  Biso   1.000  N
  N10      1.0000 0.99507  0.48977  0.21718  Biso   1.000  N
  N11      1.0000 0.50493  0.98977  0.21718  Biso   1.000  N
  N12      1.0000 0.49507  0.01023  0.71717  Biso   1.000  N
  N13      1.0000 0.17333  0.45228  0.78496  Biso   1.000  N
  N14      1.0000 0.82667  0.54772  0.28496  Biso   1.000  N
  N15      1.0000 0.67333  0.04771  0.28496  Biso   1.000  N
  N16      1.0000 0.32667  0.95229  0.78496  Biso   1.000  N
  O1       1.0000 0.96232  0.76313  0.74655  Biso   1.000  O
  O2       1.0000 0.03768  0.23687  0.24655  Biso   1.000  O
  O3       1.0000 0.46232  0.73687  0.24655  Biso   1.000  O
  O4       1.0000 0.53768  0.26313  0.74655  Biso   1.000  O
  O5       1.0000 0.94717  0.84413  0.85128  Biso   1.000  O
  O6       1.0000 0.05283  0.15587  0.35128  Biso   1.000  O
  O7       1.0000 0.44717  0.65587  0.35127  Biso   1.000  O
  O8       1.0000 0.55283  0.34413  0.85127  Biso   1.000  O
  O9       1.0000 0.46535  0.61951  0.95908  Biso   1.000  O
  O10      1.0000 0.53465  0.38049  0.45908  Biso   1.000  O
  O11      1.0000 0.96536  0.88049  0.45908  Biso   1.000  O
  O12      1.0000 0.03464  0.11951  0.95908  Biso   1.000  O
  O13      1.0000 0.62999  0.69253  0.01335  Biso   1.000  O
  O14      1.0000 0.37001  0.30747  0.51335  Biso   1.000  O
  O15      1.0000 0.13000  0.80746  0.51335  Biso   1.000  O
  O16      1.0000 0.87000  0.19254  0.01335  Biso   1.000  O
  O17      1.0000 0.79176  0.46686  0.65174  Biso   1.000  O
  O18      1.0000 0.20824  0.53314  0.15174  Biso   1.000  O
  O19      1.0000 0.29176  0.03315  0.15174  Biso   1.000  O
  O20      1.0000 0.70824  0.96686  0.65174  Biso   1.000  O
  O21      1.0000 0.79323  0.29302  0.69392  Biso   1.000  O
  O22      1.0000 0.20677  0.70698  0.19393  Biso   1.000  O
  O23      1.0000 0.29323  0.20699  0.19392  Biso   1.000  O
  O24      1.0000 0.70677  0.79301  0.69392  Biso   1.000  O
  O25      1.0000 0.30213  0.29098  0.84927  Biso   1.000  O
  O26      1.0000 0.69787  0.70902  0.34927  Biso   1.000  O
  O27      1.0000 0.80213  0.20902  0.34927  Biso   1.000  O
  O28      1.0000 0.19787  0.79098  0.84926  Biso   1.000  O
  O29      1.0000 0.16586  0.16180  0.81681  Biso   1.000  O
  O30      1.0000 0.83414  0.83820  0.31681  Biso   1.000  O
  O31      1.0000 0.66587  0.33820  0.31681  Biso   1.000  O
  O32      1.0000 0.33413  0.66180  0.81681  Biso   1.000  O
  O33      1.0000 0.40963  0.39261  0.97825  Biso   1.000  O
  O34      1.0000 0.59037  0.60739  0.47825  Biso   1.000  O
  O35      1.0000 0.90963  0.10739  0.47825  Biso   1.000  O
  O36      1.0000 0.09037  0.89261  0.97825  Biso   1.000  O
  O37      1.0000 0.32269  0.34435  0.07923  Biso   1.000  O
  O38      1.0000 0.67731  0.65565  0.57923  Biso   1.000  O
  O39      1.0000 0.82269  0.15565  0.57923  Biso   1.000  O
  O40      1.0000 0.17731  0.84435  0.07923  Biso   1.000  O
  O41      1.0000 0.19749  0.48325  0.93612  Biso   1.000  O
  O42      1.0000 0.80251  0.51675  0.43613  Biso   1.000  O
  O43      1.0000 0.69749  0.01676  0.43612  Biso   1.000  O
  O44      1.0000 0.30251  0.98324  0.93613  Biso   1.000  O
  O45      1.0000 0.10447  0.41355  0.03048  Biso   1.000  O
  O46      1.0000 0.89553  0.58645  0.53048  Biso   1.000  O
  O47      1.0000 0.60447  0.08645  0.53048  Biso   1.000  O
  O48      1.0000 0.39553  0.91354  0.03048  Biso   1.000  O
  O49      1.0000 0.08560  0.67643  0.61514  Biso   1.000  O
  O50      1.0000 0.91440  0.32357  0.11514  Biso   1.000  O
  O51      1.0000 0.58560  0.82357  0.11514  Biso   1.000  O
  O52      1.0000 0.41440  0.17643  0.61514  Biso   1.000  O
  O53      1.0000 0.89184  0.84859  0.59158  Biso   1.000  O
  O54      1.0000 0.10815  0.15141  0.09158  Biso   1.000  O
  O55      1.0000 0.39184  0.65141  0.09158  Biso   1.000  O
  O56      1.0000 0.60816  0.34859  0.59158  Biso   1.000  O
  O57      1.0000 0.43538  0.45770  0.73689  Biso   1.000  O
  O58      1.0000 0.56462  0.54230  0.23689  Biso   1.000  O
  O59      1.0000 0.93539  0.04230  0.23689  Biso   1.000  O
  O60      1.0000 0.06461  0.95770  0.73689  Biso   1.000  O
