data_image0
_cell_length_a       10.9877
_cell_length_b       11.9125
_cell_length_c       19.1739
_cell_angle_alpha    89.9999
_cell_angle_beta     89.9999
_cell_angle_gamma    90

_symmetry_space_group_name_H-M    "P 1"
_symmetry_int_tables_number       1

loop_
  _symmetry_equiv_pos_as_xyz
  'x, y, z'

loop_
  _atom_site_label
  _atom_site_occupancy
  _atom_site_fract_x
  _atom_site_fract_y
  _atom_site_fract_z
  _atom_site_thermal_displace_type
  _atom_site_B_iso_or_equiv
  _atom_site_type_symbol
  Sm1      1.0000 0.36116  0.66191  0.59924  Biso   1.000  Sm
  Sm2      1.0000 0.63884  0.33809  0.09924  Biso   1.000  Sm
  Sm3      1.0000 0.86116  0.83809  0.09924  Biso   1.000  Sm
  Sm4      1.0000 0.13884  0.16191  0.59924  Biso   1.000  Sm
  Sm5      1.0000 0.88235  0.47841  0.81951  Biso   1.000  Sm
  Sm6      1.0000 0.11765  0.52160  0.31951  Biso   1.000  Sm
  Sm7      1.0000 0.38235  0.02159  0.31951  Biso   1.000  Sm
  Sm8      1.0000 0.61765  0.97840  0.81951  Biso   1.000  Sm
  H1       1.0000 0.14113  0.50568  0.70057  Biso   1.000  H
  H2       1.0000 0.85887  0.49432  0.20057  Biso   1.000  H
  H3       1.0000 0.64113  0.99432  0.20057  Biso   1.000  H
  H4       1.0000 0.35886  0.00568  0.70057  Biso   1.000  H
  H5       1.0000 0.28937  0.75580  0.88238  Biso   1.000  H
  H6       1.0000 0.71063  0.24419  0.38238  Biso   1.000  H
  H7       1.0000 0.78937  0.74420  0.38238  Biso   1.000  H
  H8       1.0000 0.21063  0.25580  0.88238  Biso   1.000  H
  H9       1.0000 0.64257  0.61517  0.70456  Biso   1.000  H
  H10      1.0000 0.35743  0.38483  0.20456  Biso   1.000  H
  H11      1.0000 0.14258  0.88483  0.20456  Biso   1.000  H
  H12      1.0000 0.85743  0.11517  0.70456  Biso   1.000  H
  H13      1.0000 0.48884  0.23245  0.70326  Biso   1.000  H
  H14      1.0000 0.51116  0.76755  0.20326  Biso   1.000  H
  H15      1.0000 0.98885  0.26755  0.20326  Biso   1.000  H
  H16      1.0000 0.01116  0.73245  0.70326  Biso   1.000  H
  H17      1.0000 0.59595  0.60500  0.54053  Biso   1.000  H
  H18      1.0000 0.40405  0.39500  0.04053  Biso   1.000  H
  H19      1.0000 0.09595  0.89501  0.04053  Biso   1.000  H
  H20      1.0000 0.90405  0.10500  0.54053  Biso   1.000  H
  H21      1.0000 0.59245  0.73454  0.53121  Biso   1.000  H
  H22      1.0000 0.40755  0.26546  0.03121  Biso   1.000  H
  H23      1.0000 0.09245  0.76546  0.03121  Biso   1.000  H
  H24      1.0000 0.90755  0.23454  0.53121  Biso   1.000  H
  H25      1.0000 0.41044  0.85923  0.49350  Biso   1.000  H
  H26      1.0000 0.58956  0.14077  0.99350  Biso   1.000  H
  H27      1.0000 0.91044  0.64077  0.99350  Biso   1.000  H
  H28      1.0000 0.08956  0.35923  0.49350  Biso   1.000  H
  H29      1.0000 0.32725  0.89901  0.55861  Biso   1.000  H
  H30      1.0000 0.67275  0.10099  0.05861  Biso   1.000  H
  H31      1.0000 0.82725  0.60099  0.05861  Biso   1.000  H
  H32      1.0000 0.17275  0.39901  0.55861  Biso   1.000  H
  H33      1.0000 0.96392  0.37853  0.68275  Biso   1.000  H
  H34      1.0000 0.03608  0.62147  0.18275  Biso   1.000  H
  H35      1.0000 0.46392  0.12147  0.18275  Biso   1.000  H
  H36      1.0000 0.53608  0.87853  0.68275  Biso   1.000  H
  H37      1.0000 0.88959  0.48197  0.64989  Biso   1.000  H
  H38      1.0000 0.11041  0.51803  0.14989  Biso   1.000  H
  H39      1.0000 0.38959  0.01803  0.14989  Biso   1.000  H
  H40      1.0000 0.61041  0.98197  0.64989  Biso   1.000  H
  C1       1.0000 0.17385  0.56243  0.74097  Biso   1.000  C
  C2       1.0000 0.82615  0.43756  0.24097  Biso   1.000  C
  C3       1.0000 0.67385  0.93757  0.24097  Biso   1.000  C
  C4       1.0000 0.32615  0.06243  0.74097  Biso   1.000  C
  C5       1.0000 0.14825  0.63984  0.84918  Biso   1.000  C
  C6       1.0000 0.85175  0.36015  0.34917  Biso   1.000  C
  C7       1.0000 0.64825  0.86016  0.34918  Biso   1.000  C
  C8       1.0000 0.35175  0.13985  0.84917  Biso   1.000  C
  C9       1.0000 0.25576  0.70086  0.84137  Biso   1.000  C
  C10      1.0000 0.74424  0.29913  0.34137  Biso   1.000  C
  C11      1.0000 0.75577  0.79914  0.34137  Biso   1.000  C
  C12      1.0000 0.24424  0.20086  0.84137  Biso   1.000  C
  C13      1.0000 0.31458  0.69219  0.77750  Biso   1.000  C
  C14      1.0000 0.68542  0.30780  0.27750  Biso   1.000  C
  C15      1.0000 0.81458  0.80781  0.27750  Biso   1.000  C
  C16      1.0000 0.18542  0.19220  0.77750  Biso   1.000  C
  C17      1.0000 0.41826  0.77017  0.75870  Biso   1.000  C
  C18      1.0000 0.58174  0.22982  0.25870  Biso   1.000  C
  C19      1.0000 0.91827  0.72983  0.25870  Biso   1.000  C
  C20      1.0000 0.08174  0.27018  0.75870  Biso   1.000  C
  C21      1.0000 0.07318  0.65005  0.91489  Biso   1.000  C
  C22      1.0000 0.92682  0.34994  0.41489  Biso   1.000  C
  C23      1.0000 0.57318  0.84994  0.41489  Biso   1.000  C
  C24      1.0000 0.42682  0.15006  0.91489  Biso   1.000  C
  C25      1.0000 0.60854  0.52937  0.70440  Biso   1.000  C
  C26      1.0000 0.39146  0.47064  0.20440  Biso   1.000  C
  C27      1.0000 0.10854  0.97064  0.20440  Biso   1.000  C
  C28      1.0000 0.89146  0.02936  0.70440  Biso   1.000  C
  C29      1.0000 0.63070  0.34570  0.73776  Biso   1.000  C
  C30      1.0000 0.36930  0.65430  0.23776  Biso   1.000  C
  C31      1.0000 0.13071  0.15430  0.23776  Biso   1.000  C
  C32      1.0000 0.86930  0.84570  0.73776  Biso   1.000  C
  C33      1.0000 0.52281  0.31806  0.70398  Biso   1.000  C
  C34      1.0000 0.47719  0.68195  0.20397  Biso   1.000  C
  C35      1.0000 0.02282  0.18194  0.20397  Biso   1.000  C
  C36      1.0000 0.97719  0.81806  0.70398  Biso   1.000  C
  C37      1.0000 0.46058  0.40484  0.67113  Biso   1.000  C
  C38      1.0000 0.53942  0.59516  0.17113  Biso   1.000  C
  C39      1.0000 0.96058  0.09516  0.17113  Biso   1.000  C
  C40      1.0000 0.03942  0.90484  0.67113  Biso   1.000  C
  C41      1.0000 0.33869  0.38494  0.63711  Biso   1.000  C
  C42      1.0000 0.66131  0.61506  0.13711  Biso   1.000  C
  C43      1.0000 0.83869  0.11506  0.13711  Biso   1.000  C
  C44      1.0000 0.16131  0.88494  0.63711  Biso   1.000  C
  C45      1.0000 0.70557  0.25714  0.77516  Biso   1.000  C
  C46      1.0000 0.29443  0.74287  0.27516  Biso   1.000  C
  C47      1.0000 0.20557  0.24287  0.27516  Biso   1.000  C
  C48      1.0000 0.79444  0.75713  0.77516  Biso   1.000  C
  C49      1.0000 0.82278  0.38484  0.97218  Biso   1.000  C
  C50      1.0000 0.17722  0.61515  0.47218  Biso   1.000  C
  C51      1.0000 0.32277  0.11516  0.47218  Biso   1.000  C
  C52      1.0000 0.67722  0.88484  0.97218  Biso   1.000  C
  C53      1.0000 0.69897  0.43327  0.94587  Biso   1.000  C
  C54      1.0000 0.30103  0.56673  0.44587  Biso   1.000  C
  C55      1.0000 0.19897  0.06674  0.44587  Biso   1.000  C
  C56      1.0000 0.80103  0.93326  0.94587  Biso   1.000  C
  N1       1.0000 0.27566  0.62014  0.72802  Biso   1.000  N
  N2       1.0000 0.72434  0.37985  0.22802  Biso   1.000  N
  N3       1.0000 0.77566  0.87986  0.22802  Biso   1.000  N
  N4       1.0000 0.22434  0.12015  0.72802  Biso   1.000  N
  N5       1.0000 0.10545  0.57269  0.79850  Biso   1.000  N
  N6       1.0000 0.89455  0.42730  0.29849  Biso   1.000  N
  N7       1.0000 0.60545  0.92731  0.29849  Biso   1.000  N
  N8       1.0000 0.39454  0.07269  0.79849  Biso   1.000  N
  N9       1.0000 0.50413  0.51025  0.66995  Biso   1.000  N
  N10      1.0000 0.49587  0.48975  0.16995  Biso   1.000  N
  N11      1.0000 0.00414  0.98975  0.16995  Biso   1.000  N
  N12      1.0000 0.99587  0.01025  0.66995  Biso   1.000  N
  N13      1.0000 0.67320  0.45180  0.73880  Biso   1.000  N
  N14      1.0000 0.32680  0.54820  0.23880  Biso   1.000  N
  N15      1.0000 0.17320  0.04820  0.23880  Biso   1.000  N
  N16      1.0000 0.82680  0.95180  0.73880  Biso   1.000  N
  O1       1.0000 0.46088  0.76146  0.69660  Biso   1.000  O
  O2       1.0000 0.53912  0.23853  0.19660  Biso   1.000  O
  O3       1.0000 0.96088  0.73854  0.19660  Biso   1.000  O
  O4       1.0000 0.03912  0.26147  0.69660  Biso   1.000  O
  O5       1.0000 0.45052  0.84040  0.80372  Biso   1.000  O
  O6       1.0000 0.54948  0.15959  0.30372  Biso   1.000  O
  O7       1.0000 0.95052  0.65960  0.30372  Biso   1.000  O
  O8       1.0000 0.04949  0.34041  0.80372  Biso   1.000  O
  O9       1.0000 0.96270  0.61696  0.91096  Biso   1.000  O
  O10      1.0000 0.03731  0.38303  0.41096  Biso   1.000  O
  O11      1.0000 0.46270  0.88304  0.41096  Biso   1.000  O
  O12      1.0000 0.53731  0.11696  0.91096  Biso   1.000  O
  O13      1.0000 0.12779  0.69009  0.96672  Biso   1.000  O
  O14      1.0000 0.87222  0.30990  0.46672  Biso   1.000  O
  O15      1.0000 0.62778  0.80991  0.46672  Biso   1.000  O
  O16      1.0000 0.37221  0.19009  0.96672  Biso   1.000  O
  O17      1.0000 0.29123  0.46640  0.60358  Biso   1.000  O
  O18      1.0000 0.70877  0.53360  0.10358  Biso   1.000  O
  O19      1.0000 0.79124  0.03360  0.10358  Biso   1.000  O
  O20      1.0000 0.20877  0.96640  0.60358  Biso   1.000  O
  O21      1.0000 0.29158  0.29020  0.64652  Biso   1.000  O
  O22      1.0000 0.70842  0.70980  0.14652  Biso   1.000  O
  O23      1.0000 0.79158  0.20980  0.14652  Biso   1.000  O
  O24      1.0000 0.20842  0.79020  0.64652  Biso   1.000  O
  O25      1.0000 0.80190  0.28919  0.80446  Biso   1.000  O
  O26      1.0000 0.19810  0.71082  0.30446  Biso   1.000  O
  O27      1.0000 0.30190  0.21082  0.30446  Biso   1.000  O
  O28      1.0000 0.69810  0.78918  0.80446  Biso   1.000  O
  O29      1.0000 0.66523  0.15737  0.77225  Biso   1.000  O
  O30      1.0000 0.33477  0.84264  0.27225  Biso   1.000  O
  O31      1.0000 0.16524  0.34263  0.27225  Biso   1.000  O
  O32      1.0000 0.83477  0.65737  0.77225  Biso   1.000  O
  O33      1.0000 0.82423  0.34550  0.03360  Biso   1.000  O
  O34      1.0000 0.17577  0.65449  0.53359  Biso   1.000  O
  O35      1.0000 0.32423  0.15449  0.53359  Biso   1.000  O
  O36      1.0000 0.67577  0.84551  0.03359  Biso   1.000  O
  O37      1.0000 0.91166  0.39015  0.93060  Biso   1.000  O
  O38      1.0000 0.08835  0.60984  0.43060  Biso   1.000  O
  O39      1.0000 0.41166  0.10984  0.43060  Biso   1.000  O
  O40      1.0000 0.58834  0.89015  0.93060  Biso   1.000  O
  O41      1.0000 0.60657  0.41683  0.98416  Biso   1.000  O
  O42      1.0000 0.39343  0.58315  0.48416  Biso   1.000  O
  O43      1.0000 0.10657  0.08317  0.48415  Biso   1.000  O
  O44      1.0000 0.89343  0.91684  0.98416  Biso   1.000  O
  O45      1.0000 0.70092  0.48569  0.88843  Biso   1.000  O
  O46      1.0000 0.29909  0.51431  0.38843  Biso   1.000  O
  O47      1.0000 0.20091  0.01431  0.38842  Biso   1.000  O
  O48      1.0000 0.79908  0.98569  0.88843  Biso   1.000  O
  O49      1.0000 0.57911  0.67307  0.56703  Biso   1.000  O
  O50      1.0000 0.42089  0.32693  0.06703  Biso   1.000  O
  O51      1.0000 0.07911  0.82693  0.06703  Biso   1.000  O
  O52      1.0000 0.92089  0.17307  0.56703  Biso   1.000  O
  O53      1.0000 0.38686  0.84197  0.54275  Biso   1.000  O
  O54      1.0000 0.61314  0.15802  0.04275  Biso   1.000  O
  O55      1.0000 0.88687  0.65802  0.04275  Biso   1.000  O
  O56      1.0000 0.11314  0.34198  0.54275  Biso   1.000  O
  O57      1.0000 0.93083  0.45603  0.69159  Biso   1.000  O
  O58      1.0000 0.06917  0.54397  0.19159  Biso   1.000  O
  O59      1.0000 0.43083  0.04397  0.19159  Biso   1.000  O
  O60      1.0000 0.56917  0.95603  0.69159  Biso   1.000  O
