data_image0
_cell_length_a       10.9664
_cell_length_b       11.8539
_cell_length_c       19.0814
_cell_angle_alpha    90
_cell_angle_beta     90.0009
_cell_angle_gamma    90

_symmetry_space_group_name_H-M    "P 1"
_symmetry_int_tables_number       1

loop_
  _symmetry_equiv_pos_as_xyz
  'x, y, z'

loop_
  _atom_site_label
  _atom_site_occupancy
  _atom_site_fract_x
  _atom_site_fract_y
  _atom_site_fract_z
  _atom_site_thermal_displace_type
  _atom_site_B_iso_or_equiv
  _atom_site_type_symbol
  Eu1      1.0000 0.86051  0.83838  0.10092  Biso   1.000  Eu
  Eu2      1.0000 0.13949  0.16162  0.60092  Biso   1.000  Eu
  Eu3      1.0000 0.36051  0.66162  0.60092  Biso   1.000  Eu
  Eu4      1.0000 0.63949  0.33838  0.10092  Biso   1.000  Eu
  Eu5      1.0000 0.38277  0.02223  0.32133  Biso   1.000  Eu
  Eu6      1.0000 0.61723  0.97777  0.82132  Biso   1.000  Eu
  Eu7      1.0000 0.88277  0.47777  0.82132  Biso   1.000  Eu
  Eu8      1.0000 0.11723  0.52223  0.32132  Biso   1.000  Eu
  H1       1.0000 0.63966  0.99472  0.20096  Biso   1.000  H
  H2       1.0000 0.36033  0.00529  0.70097  Biso   1.000  H
  H3       1.0000 0.13966  0.50528  0.70097  Biso   1.000  H
  H4       1.0000 0.86033  0.49471  0.20097  Biso   1.000  H
  H5       1.0000 0.79214  0.74793  0.38503  Biso   1.000  H
  H6       1.0000 0.20787  0.25206  0.88503  Biso   1.000  H
  H7       1.0000 0.29214  0.75207  0.88503  Biso   1.000  H
  H8       1.0000 0.70787  0.24794  0.38503  Biso   1.000  H
  H9       1.0000 0.14325  0.88397  0.20573  Biso   1.000  H
  H10      1.0000 0.85676  0.11603  0.70573  Biso   1.000  H
  H11      1.0000 0.64325  0.61603  0.70573  Biso   1.000  H
  H12      1.0000 0.35676  0.38397  0.20573  Biso   1.000  H
  H13      1.0000 0.98839  0.26826  0.20549  Biso   1.000  H
  H14      1.0000 0.01160  0.73174  0.70549  Biso   1.000  H
  H15      1.0000 0.48839  0.23174  0.70549  Biso   1.000  H
  H16      1.0000 0.51160  0.76826  0.20549  Biso   1.000  H
  H17      1.0000 0.08909  0.89493  0.03820  Biso   1.000  H
  H18      1.0000 0.91091  0.10507  0.53820  Biso   1.000  H
  H19      1.0000 0.58909  0.60507  0.53821  Biso   1.000  H
  H20      1.0000 0.41091  0.39493  0.03820  Biso   1.000  H
  H21      1.0000 0.09179  0.76431  0.03327  Biso   1.000  H
  H22      1.0000 0.90821  0.23569  0.53327  Biso   1.000  H
  H23      1.0000 0.59179  0.73569  0.53327  Biso   1.000  H
  H24      1.0000 0.40821  0.26431  0.03327  Biso   1.000  H
  H25      1.0000 0.90977  0.64142  0.99468  Biso   1.000  H
  H26      1.0000 0.09023  0.35858  0.49468  Biso   1.000  H
  H27      1.0000 0.40977  0.85858  0.49468  Biso   1.000  H
  H28      1.0000 0.59023  0.14142  0.99468  Biso   1.000  H
  H29      1.0000 0.82647  0.60156  0.06008  Biso   1.000  H
  H30      1.0000 0.17353  0.39844  0.56008  Biso   1.000  H
  H31      1.0000 0.32647  0.89844  0.56008  Biso   1.000  H
  H32      1.0000 0.67353  0.10156  0.06008  Biso   1.000  H
  H33      1.0000 0.46319  0.12112  0.18413  Biso   1.000  H
  H34      1.0000 0.53680  0.87888  0.68413  Biso   1.000  H
  H35      1.0000 0.96319  0.37888  0.68413  Biso   1.000  H
  H36      1.0000 0.03680  0.62112  0.18413  Biso   1.000  H
  H37      1.0000 0.38615  0.01764  0.15249  Biso   1.000  H
  H38      1.0000 0.61385  0.98236  0.65249  Biso   1.000  H
  H39      1.0000 0.88615  0.48236  0.65249  Biso   1.000  H
  H40      1.0000 0.11385  0.51764  0.15249  Biso   1.000  H
  C1       1.0000 0.67330  0.93863  0.24188  Biso   1.000  C
  C2       1.0000 0.32670  0.06138  0.74189  Biso   1.000  C
  C3       1.0000 0.17330  0.56137  0.74188  Biso   1.000  C
  C4       1.0000 0.82670  0.43862  0.24189  Biso   1.000  C
  C5       1.0000 0.64949  0.86285  0.35124  Biso   1.000  C
  C6       1.0000 0.35051  0.13715  0.85124  Biso   1.000  C
  C7       1.0000 0.14949  0.63715  0.85124  Biso   1.000  C
  C8       1.0000 0.85051  0.36285  0.35124  Biso   1.000  C
  C9       1.0000 0.75759  0.80214  0.34355  Biso   1.000  C
  C10      1.0000 0.24241  0.19786  0.84355  Biso   1.000  C
  C11      1.0000 0.25759  0.69786  0.84355  Biso   1.000  C
  C12      1.0000 0.74241  0.30214  0.34355  Biso   1.000  C
  C13      1.0000 0.81540  0.80955  0.27899  Biso   1.000  C
  C14      1.0000 0.18460  0.19045  0.77899  Biso   1.000  C
  C15      1.0000 0.31540  0.69045  0.77899  Biso   1.000  C
  C16      1.0000 0.68460  0.30955  0.27899  Biso   1.000  C
  C17      1.0000 0.91872  0.73065  0.25999  Biso   1.000  C
  C18      1.0000 0.08127  0.26934  0.75998  Biso   1.000  C
  C19      1.0000 0.41872  0.76934  0.75999  Biso   1.000  C
  C20      1.0000 0.58127  0.23066  0.25998  Biso   1.000  C
  C21      1.0000 0.57444  0.85293  0.41728  Biso   1.000  C
  C22      1.0000 0.42557  0.14707  0.91728  Biso   1.000  C
  C23      1.0000 0.07444  0.64707  0.91728  Biso   1.000  C
  C24      1.0000 0.92557  0.35293  0.41728  Biso   1.000  C
  C25      1.0000 0.10883  0.97010  0.20598  Biso   1.000  C
  C26      1.0000 0.89117  0.02990  0.70598  Biso   1.000  C
  C27      1.0000 0.60883  0.52990  0.70598  Biso   1.000  C
  C28      1.0000 0.39117  0.47010  0.20597  Biso   1.000  C
  C29      1.0000 0.13070  0.15446  0.23992  Biso   1.000  C
  C30      1.0000 0.86930  0.84554  0.73992  Biso   1.000  C
  C31      1.0000 0.63070  0.34554  0.73992  Biso   1.000  C
  C32      1.0000 0.36930  0.65446  0.23992  Biso   1.000  C
  C33      1.0000 0.02255  0.18228  0.20611  Biso   1.000  C
  C34      1.0000 0.97745  0.81772  0.70611  Biso   1.000  C
  C35      1.0000 0.52255  0.31772  0.70611  Biso   1.000  C
  C36      1.0000 0.47745  0.68228  0.20611  Biso   1.000  C
  C37      1.0000 0.96034  0.09509  0.17302  Biso   1.000  C
  C38      1.0000 0.03966  0.90491  0.67302  Biso   1.000  C
  C39      1.0000 0.46034  0.40491  0.67302  Biso   1.000  C
  C40      1.0000 0.53966  0.59509  0.17302  Biso   1.000  C
  C41      1.0000 0.83838  0.11501  0.13886  Biso   1.000  C
  C42      1.0000 0.16161  0.88499  0.63886  Biso   1.000  C
  C43      1.0000 0.33838  0.38499  0.63886  Biso   1.000  C
  C44      1.0000 0.66161  0.61501  0.13886  Biso   1.000  C
  C45      1.0000 0.20555  0.24327  0.27769  Biso   1.000  C
  C46      1.0000 0.79446  0.75673  0.77769  Biso   1.000  C
  C47      1.0000 0.70555  0.25673  0.77769  Biso   1.000  C
  C48      1.0000 0.29446  0.74327  0.27769  Biso   1.000  C
  C49      1.0000 0.32338  0.11526  0.47403  Biso   1.000  C
  C50      1.0000 0.67662  0.88474  0.97402  Biso   1.000  C
  C51      1.0000 0.82338  0.38474  0.97402  Biso   1.000  C
  C52      1.0000 0.17662  0.61526  0.47402  Biso   1.000  C
  C53      1.0000 0.19979  0.06580  0.44757  Biso   1.000  C
  C54      1.0000 0.80021  0.93420  0.94757  Biso   1.000  C
  C55      1.0000 0.69979  0.43420  0.94757  Biso   1.000  C
  C56      1.0000 0.30021  0.56580  0.44758  Biso   1.000  C
  N1       1.0000 0.77548  0.88083  0.22895  Biso   1.000  N
  N2       1.0000 0.22451  0.11918  0.72895  Biso   1.000  N
  N3       1.0000 0.27548  0.61917  0.72895  Biso   1.000  N
  N4       1.0000 0.72451  0.38082  0.22895  Biso   1.000  N
  N5       1.0000 0.60542  0.92889  0.29994  Biso   1.000  N
  N6       1.0000 0.39458  0.07111  0.79994  Biso   1.000  N
  N7       1.0000 0.10542  0.57111  0.79994  Biso   1.000  N
  N8       1.0000 0.89458  0.42889  0.29994  Biso   1.000  N
  N9       1.0000 0.00401  0.98925  0.17159  Biso   1.000  N
  N10      1.0000 0.99599  0.01075  0.67159  Biso   1.000  N
  N11      1.0000 0.50401  0.51075  0.67158  Biso   1.000  N
  N12      1.0000 0.49599  0.48925  0.17159  Biso   1.000  N
  N13      1.0000 0.17355  0.04795  0.24064  Biso   1.000  N
  N14      1.0000 0.82646  0.95205  0.74064  Biso   1.000  N
  N15      1.0000 0.67355  0.45205  0.74064  Biso   1.000  N
  N16      1.0000 0.32646  0.54795  0.24064  Biso   1.000  N
  O1       1.0000 0.96058  0.73859  0.19736  Biso   1.000  O
  O2       1.0000 0.03941  0.26142  0.69735  Biso   1.000  O
  O3       1.0000 0.46058  0.76141  0.69736  Biso   1.000  O
  O4       1.0000 0.53941  0.23858  0.19735  Biso   1.000  O
  O5       1.0000 0.95143  0.66052  0.30534  Biso   1.000  O
  O6       1.0000 0.04857  0.33948  0.80534  Biso   1.000  O
  O7       1.0000 0.45143  0.83948  0.80534  Biso   1.000  O
  O8       1.0000 0.54857  0.16052  0.30534  Biso   1.000  O
  O9       1.0000 0.46313  0.88437  0.41272  Biso   1.000  O
  O10      1.0000 0.53688  0.11564  0.91272  Biso   1.000  O
  O11      1.0000 0.96313  0.61563  0.91272  Biso   1.000  O
  O12      1.0000 0.03688  0.38437  0.41272  Biso   1.000  O
  O13      1.0000 0.62930  0.81440  0.46979  Biso   1.000  O
  O14      1.0000 0.37071  0.18559  0.96979  Biso   1.000  O
  O15      1.0000 0.12930  0.68560  0.96979  Biso   1.000  O
  O16      1.0000 0.87070  0.31441  0.46979  Biso   1.000  O
  O17      1.0000 0.79098  0.03317  0.10509  Biso   1.000  O
  O18      1.0000 0.20901  0.96683  0.60509  Biso   1.000  O
  O19      1.0000 0.29098  0.46683  0.60509  Biso   1.000  O
  O20      1.0000 0.70901  0.53317  0.10509  Biso   1.000  O
  O21      1.0000 0.79115  0.21017  0.14832  Biso   1.000  O
  O22      1.0000 0.20885  0.78983  0.64832  Biso   1.000  O
  O23      1.0000 0.29115  0.28983  0.64832  Biso   1.000  O
  O24      1.0000 0.70885  0.71017  0.14832  Biso   1.000  O
  O25      1.0000 0.30219  0.21084  0.30691  Biso   1.000  O
  O26      1.0000 0.69782  0.78917  0.80691  Biso   1.000  O
  O27      1.0000 0.80219  0.28916  0.80691  Biso   1.000  O
  O28      1.0000 0.19782  0.71083  0.30691  Biso   1.000  O
  O29      1.0000 0.16490  0.34345  0.27508  Biso   1.000  O
  O30      1.0000 0.83510  0.65655  0.77508  Biso   1.000  O
  O31      1.0000 0.66490  0.15655  0.77508  Biso   1.000  O
  O32      1.0000 0.33510  0.84345  0.27508  Biso   1.000  O
  O33      1.0000 0.41226  0.11057  0.43209  Biso   1.000  O
  O34      1.0000 0.58774  0.88943  0.93208  Biso   1.000  O
  O35      1.0000 0.91226  0.38943  0.93209  Biso   1.000  O
  O36      1.0000 0.08774  0.61057  0.43208  Biso   1.000  O
  O37      1.0000 0.32463  0.15463  0.53577  Biso   1.000  O
  O38      1.0000 0.67538  0.84537  0.03577  Biso   1.000  O
  O39      1.0000 0.82463  0.34537  0.03577  Biso   1.000  O
  O40      1.0000 0.17537  0.65463  0.53577  Biso   1.000  O
  O41      1.0000 0.20204  0.01315  0.38984  Biso   1.000  O
  O42      1.0000 0.79795  0.98685  0.88984  Biso   1.000  O
  O43      1.0000 0.70204  0.48685  0.88984  Biso   1.000  O
  O44      1.0000 0.29795  0.51315  0.38985  Biso   1.000  O
  O45      1.0000 0.10722  0.08182  0.48615  Biso   1.000  O
  O46      1.0000 0.89278  0.91818  0.98616  Biso   1.000  O
  O47      1.0000 0.60722  0.41818  0.98615  Biso   1.000  O
  O48      1.0000 0.39278  0.58182  0.48616  Biso   1.000  O
  O49      1.0000 0.07678  0.82836  0.06741  Biso   1.000  O
  O50      1.0000 0.92322  0.17164  0.56740  Biso   1.000  O
  O51      1.0000 0.57678  0.67164  0.56741  Biso   1.000  O
  O52      1.0000 0.42322  0.32836  0.06740  Biso   1.000  O
  O53      1.0000 0.88544  0.65945  0.04400  Biso   1.000  O
  O54      1.0000 0.11456  0.34055  0.54400  Biso   1.000  O
  O55      1.0000 0.38544  0.84055  0.54400  Biso   1.000  O
  O56      1.0000 0.61456  0.15945  0.04400  Biso   1.000  O
  O57      1.0000 0.42975  0.04354  0.19367  Biso   1.000  O
  O58      1.0000 0.57024  0.95646  0.69367  Biso   1.000  O
  O59      1.0000 0.92975  0.45646  0.69367  Biso   1.000  O
  O60      1.0000 0.07024  0.54354  0.19367  Biso   1.000  O
