data_image0
_cell_length_a       10.9663
_cell_length_b       11.7984
_cell_length_c       19.0138
_cell_angle_alpha    90
_cell_angle_beta     89.9999
_cell_angle_gamma    90

_symmetry_space_group_name_H-M    "P 1"
_symmetry_int_tables_number       1

loop_
  _symmetry_equiv_pos_as_xyz
  'x, y, z'

loop_
  _atom_site_label
  _atom_site_occupancy
  _atom_site_fract_x
  _atom_site_fract_y
  _atom_site_fract_z
  _atom_site_thermal_displace_type
  _atom_site_B_iso_or_equiv
  _atom_site_type_symbol
  Gd1      1.0000 0.36008  0.83900  0.42781  Biso   1.000  Gd
  Gd2      1.0000 0.63992  0.16100  0.92781  Biso   1.000  Gd
  Gd3      1.0000 0.86009  0.66100  0.92781  Biso   1.000  Gd
  Gd4      1.0000 0.13992  0.33900  0.42781  Biso   1.000  Gd
  Gd5      1.0000 0.88279  0.02373  0.20714  Biso   1.000  Gd
  Gd6      1.0000 0.11720  0.97627  0.70714  Biso   1.000  Gd
  Gd7      1.0000 0.38279  0.47627  0.70714  Biso   1.000  Gd
  Gd8      1.0000 0.61720  0.52373  0.20714  Biso   1.000  Gd
  H1       1.0000 0.13959  0.99658  0.32807  Biso   1.000  H
  H2       1.0000 0.86042  0.00342  0.82807  Biso   1.000  H
  H3       1.0000 0.63959  0.50342  0.82807  Biso   1.000  H
  H4       1.0000 0.36042  0.49658  0.32807  Biso   1.000  H
  H5       1.0000 0.29185  0.74856  0.14329  Biso   1.000  H
  H6       1.0000 0.70815  0.25144  0.64329  Biso   1.000  H
  H7       1.0000 0.79185  0.75144  0.64329  Biso   1.000  H
  H8       1.0000 0.20815  0.24856  0.14329  Biso   1.000  H
  H9       1.0000 0.64393  0.88418  0.32351  Biso   1.000  H
  H10      1.0000 0.35608  0.11582  0.82351  Biso   1.000  H
  H11      1.0000 0.14393  0.61582  0.82351  Biso   1.000  H
  H12      1.0000 0.85608  0.38417  0.32351  Biso   1.000  H
  H13      1.0000 0.48901  0.27026  0.32332  Biso   1.000  H
  H14      1.0000 0.51099  0.72974  0.82332  Biso   1.000  H
  H15      1.0000 0.98901  0.22974  0.82332  Biso   1.000  H
  H16      1.0000 0.01099  0.77026  0.32332  Biso   1.000  H
  H17      1.0000 0.58538  0.89566  0.49148  Biso   1.000  H
  H18      1.0000 0.41463  0.10434  0.99148  Biso   1.000  H
  H19      1.0000 0.08538  0.60434  0.99148  Biso   1.000  H
  H20      1.0000 0.91463  0.39566  0.49148  Biso   1.000  H
  H21      1.0000 0.59047  0.76441  0.49505  Biso   1.000  H
  H22      1.0000 0.40953  0.23559  0.99505  Biso   1.000  H
  H23      1.0000 0.09047  0.73559  0.99505  Biso   1.000  H
  H24      1.0000 0.90953  0.26441  0.49505  Biso   1.000  H
  H25      1.0000 0.40906  0.64239  0.53410  Biso   1.000  H
  H26      1.0000 0.59094  0.35761  0.03410  Biso   1.000  H
  H27      1.0000 0.90906  0.85761  0.03410  Biso   1.000  H
  H28      1.0000 0.09094  0.14239  0.53410  Biso   1.000  H
  H29      1.0000 0.32532  0.60258  0.46862  Biso   1.000  H
  H30      1.0000 0.67469  0.39742  0.96862  Biso   1.000  H
  H31      1.0000 0.82532  0.89742  0.96862  Biso   1.000  H
  H32      1.0000 0.17469  0.10258  0.46862  Biso   1.000  H
  H33      1.0000 0.96314  0.12189  0.34441  Biso   1.000  H
  H34      1.0000 0.03687  0.87811  0.84441  Biso   1.000  H
  H35      1.0000 0.46313  0.37811  0.84441  Biso   1.000  H
  H36      1.0000 0.53686  0.62189  0.34441  Biso   1.000  H
  H37      1.0000 0.88434  0.01792  0.37499  Biso   1.000  H
  H38      1.0000 0.11566  0.98208  0.87498  Biso   1.000  H
  H39      1.0000 0.38434  0.48208  0.87499  Biso   1.000  H
  H40      1.0000 0.61566  0.51792  0.37498  Biso   1.000  H
  C1       1.0000 0.17306  0.94016  0.28700  Biso   1.000  C
  C2       1.0000 0.82694  0.05985  0.78700  Biso   1.000  C
  C3       1.0000 0.67306  0.55984  0.78700  Biso   1.000  C
  C4       1.0000 0.32694  0.44015  0.28700  Biso   1.000  C
  C5       1.0000 0.14905  0.86375  0.17732  Biso   1.000  C
  C6       1.0000 0.85095  0.13625  0.67731  Biso   1.000  C
  C7       1.0000 0.64905  0.63625  0.67732  Biso   1.000  C
  C8       1.0000 0.35095  0.36375  0.17731  Biso   1.000  C
  C9       1.0000 0.25731  0.80299  0.18495  Biso   1.000  C
  C10      1.0000 0.74269  0.19701  0.68495  Biso   1.000  C
  C11      1.0000 0.75731  0.69701  0.68495  Biso   1.000  C
  C12      1.0000 0.24269  0.30299  0.18495  Biso   1.000  C
  C13      1.0000 0.31531  0.81065  0.24968  Biso   1.000  C
  C14      1.0000 0.68470  0.18936  0.74968  Biso   1.000  C
  C15      1.0000 0.81531  0.68935  0.74968  Biso   1.000  C
  C16      1.0000 0.18470  0.31064  0.24968  Biso   1.000  C
  C17      1.0000 0.41879  0.73166  0.26874  Biso   1.000  C
  C18      1.0000 0.58120  0.26835  0.76874  Biso   1.000  C
  C19      1.0000 0.91879  0.76834  0.76874  Biso   1.000  C
  C20      1.0000 0.08121  0.23165  0.26874  Biso   1.000  C
  C21      1.0000 0.07393  0.85388  0.11110  Biso   1.000  C
  C22      1.0000 0.92607  0.14612  0.61110  Biso   1.000  C
  C23      1.0000 0.57393  0.64612  0.61110  Biso   1.000  C
  C24      1.0000 0.42607  0.35388  0.11110  Biso   1.000  C
  C25      1.0000 0.60943  0.97070  0.32305  Biso   1.000  C
  C26      1.0000 0.39057  0.02930  0.82305  Biso   1.000  C
  C27      1.0000 0.10943  0.52930  0.82305  Biso   1.000  C
  C28      1.0000 0.89057  0.47070  0.32305  Biso   1.000  C
  C29      1.0000 0.63114  0.15591  0.28873  Biso   1.000  C
  C30      1.0000 0.36886  0.84409  0.78873  Biso   1.000  C
  C31      1.0000 0.13114  0.34409  0.78873  Biso   1.000  C
  C32      1.0000 0.86886  0.65591  0.28873  Biso   1.000  C
  C33      1.0000 0.52308  0.18391  0.32273  Biso   1.000  C
  C34      1.0000 0.47692  0.81609  0.82273  Biso   1.000  C
  C35      1.0000 0.02308  0.31609  0.82273  Biso   1.000  C
  C36      1.0000 0.97692  0.68391  0.32273  Biso   1.000  C
  C37      1.0000 0.46074  0.09634  0.35590  Biso   1.000  C
  C38      1.0000 0.53926  0.90366  0.85590  Biso   1.000  C
  C39      1.0000 0.96074  0.40366  0.85590  Biso   1.000  C
  C40      1.0000 0.03926  0.59634  0.35590  Biso   1.000  C
  C41      1.0000 0.33859  0.11608  0.38993  Biso   1.000  C
  C42      1.0000 0.66142  0.88391  0.88993  Biso   1.000  C
  C43      1.0000 0.83859  0.38392  0.88993  Biso   1.000  C
  C44      1.0000 0.16142  0.61609  0.38993  Biso   1.000  C
  C45      1.0000 0.70572  0.24488  0.25050  Biso   1.000  C
  C46      1.0000 0.29428  0.75512  0.75050  Biso   1.000  C
  C47      1.0000 0.20573  0.25512  0.75051  Biso   1.000  C
  C48      1.0000 0.79428  0.74488  0.25051  Biso   1.000  C
  C49      1.0000 0.70031  0.06581  0.08111  Biso   1.000  C
  C50      1.0000 0.29969  0.93419  0.58111  Biso   1.000  C
  C51      1.0000 0.20030  0.43419  0.58111  Biso   1.000  C
  C52      1.0000 0.79969  0.56581  0.08111  Biso   1.000  C
  C53      1.0000 0.82360  0.11553  0.05444  Biso   1.000  C
  C54      1.0000 0.17640  0.88448  0.55444  Biso   1.000  C
  C55      1.0000 0.32359  0.38447  0.55444  Biso   1.000  C
  C56      1.0000 0.67640  0.61552  0.05444  Biso   1.000  C
  N1       1.0000 0.27543  0.88227  0.29988  Biso   1.000  N
  N2       1.0000 0.72458  0.11774  0.79988  Biso   1.000  N
  N3       1.0000 0.77543  0.61773  0.79988  Biso   1.000  N
  N4       1.0000 0.22458  0.38226  0.29988  Biso   1.000  N
  N5       1.0000 0.10497  0.93012  0.22882  Biso   1.000  N
  N6       1.0000 0.89503  0.06988  0.72881  Biso   1.000  N
  N7       1.0000 0.60497  0.56988  0.72881  Biso   1.000  N
  N8       1.0000 0.39503  0.43012  0.22881  Biso   1.000  N
  N9       1.0000 0.50440  0.99003  0.35736  Biso   1.000  N
  N10      1.0000 0.49560  0.00997  0.85736  Biso   1.000  N
  N11      1.0000 0.00440  0.50997  0.85736  Biso   1.000  N
  N12      1.0000 0.99560  0.49003  0.35736  Biso   1.000  N
  N13      1.0000 0.67408  0.04890  0.28817  Biso   1.000  N
  N14      1.0000 0.32592  0.95110  0.78817  Biso   1.000  N
  N15      1.0000 0.17408  0.45110  0.78817  Biso   1.000  N
  N16      1.0000 0.82592  0.54890  0.28817  Biso   1.000  N
  O1       1.0000 0.45989  0.73930  0.33181  Biso   1.000  O
  O2       1.0000 0.54011  0.26071  0.83182  Biso   1.000  O
  O3       1.0000 0.95989  0.76070  0.83181  Biso   1.000  O
  O4       1.0000 0.04011  0.23929  0.33182  Biso   1.000  O
  O5       1.0000 0.45235  0.66182  0.22307  Biso   1.000  O
  O6       1.0000 0.54765  0.33819  0.72307  Biso   1.000  O
  O7       1.0000 0.95235  0.83818  0.72307  Biso   1.000  O
  O8       1.0000 0.04765  0.16182  0.22307  Biso   1.000  O
  O9       1.0000 0.96261  0.88543  0.11580  Biso   1.000  O
  O10      1.0000 0.03739  0.11458  0.61579  Biso   1.000  O
  O11      1.0000 0.46261  0.61457  0.61580  Biso   1.000  O
  O12      1.0000 0.53739  0.38542  0.11579  Biso   1.000  O
  O13      1.0000 0.12869  0.81534  0.05832  Biso   1.000  O
  O14      1.0000 0.87131  0.18466  0.55832  Biso   1.000  O
  O15      1.0000 0.62869  0.68466  0.55832  Biso   1.000  O
  O16      1.0000 0.37130  0.31534  0.05832  Biso   1.000  O
  O17      1.0000 0.29150  0.03371  0.42386  Biso   1.000  O
  O18      1.0000 0.70850  0.96628  0.92386  Biso   1.000  O
  O19      1.0000 0.79150  0.46629  0.92386  Biso   1.000  O
  O20      1.0000 0.20850  0.53371  0.42386  Biso   1.000  O
  O21      1.0000 0.29079  0.21136  0.38017  Biso   1.000  O
  O22      1.0000 0.70921  0.78864  0.88018  Biso   1.000  O
  O23      1.0000 0.79079  0.28864  0.88017  Biso   1.000  O
  O24      1.0000 0.20921  0.71136  0.38018  Biso   1.000  O
  O25      1.0000 0.80213  0.21206  0.22103  Biso   1.000  O
  O26      1.0000 0.19786  0.78794  0.72103  Biso   1.000  O
  O27      1.0000 0.30214  0.28794  0.72103  Biso   1.000  O
  O28      1.0000 0.69786  0.71206  0.22103  Biso   1.000  O
  O29      1.0000 0.66502  0.34552  0.25301  Biso   1.000  O
  O30      1.0000 0.33498  0.65449  0.75301  Biso   1.000  O
  O31      1.0000 0.16502  0.15448  0.75301  Biso   1.000  O
  O32      1.0000 0.83498  0.84551  0.25301  Biso   1.000  O
  O33      1.0000 0.60767  0.08141  0.04239  Biso   1.000  O
  O34      1.0000 0.39232  0.91859  0.54239  Biso   1.000  O
  O35      1.0000 0.10768  0.41859  0.54239  Biso   1.000  O
  O36      1.0000 0.89233  0.58142  0.04239  Biso   1.000  O
  O37      1.0000 0.70295  0.01340  0.13920  Biso   1.000  O
  O38      1.0000 0.29705  0.98660  0.63920  Biso   1.000  O
  O39      1.0000 0.20295  0.48659  0.63920  Biso   1.000  O
  O40      1.0000 0.79705  0.51340  0.13920  Biso   1.000  O
  O41      1.0000 0.82462  0.15401  0.99221  Biso   1.000  O
  O42      1.0000 0.17538  0.84599  0.49221  Biso   1.000  O
  O43      1.0000 0.32462  0.34599  0.49221  Biso   1.000  O
  O44      1.0000 0.67538  0.65401  0.99221  Biso   1.000  O
  O45      1.0000 0.91241  0.11182  0.09663  Biso   1.000  O
  O46      1.0000 0.08758  0.88819  0.59663  Biso   1.000  O
  O47      1.0000 0.41241  0.38818  0.59663  Biso   1.000  O
  O48      1.0000 0.58758  0.61181  0.09663  Biso   1.000  O
  O49      1.0000 0.57487  0.82941  0.46137  Biso   1.000  O
  O50      1.0000 0.42513  0.17059  0.96137  Biso   1.000  O
  O51      1.0000 0.07487  0.67059  0.96137  Biso   1.000  O
  O52      1.0000 0.92513  0.32941  0.46137  Biso   1.000  O
  O53      1.0000 0.38399  0.66101  0.48479  Biso   1.000  O
  O54      1.0000 0.61601  0.33899  0.98479  Biso   1.000  O
  O55      1.0000 0.88400  0.83899  0.98479  Biso   1.000  O
  O56      1.0000 0.11601  0.16100  0.48479  Biso   1.000  O
  O57      1.0000 0.92936  0.04425  0.33425  Biso   1.000  O
  O58      1.0000 0.07064  0.95575  0.83425  Biso   1.000  O
  O59      1.0000 0.42936  0.45575  0.83425  Biso   1.000  O
  O60      1.0000 0.57064  0.54425  0.33425  Biso   1.000  O
