data_image0
_cell_length_a       7.04115
_cell_length_b       9.98392
_cell_length_c       11.8783
_cell_angle_alpha    88.8807
_cell_angle_beta     77.4953
_cell_angle_gamma    89.1625

_symmetry_space_group_name_H-M    "P 1"
_symmetry_int_tables_number       1

loop_
  _symmetry_equiv_pos_as_xyz
  'x, y, z'

loop_
  _atom_site_label
  _atom_site_occupancy
  _atom_site_fract_x
  _atom_site_fract_y
  _atom_site_fract_z
  _atom_site_thermal_displace_type
  _atom_site_B_iso_or_equiv
  _atom_site_type_symbol
  Mn1      1.0000 0.31991  0.02189  0.23767  Biso   1.000  Mn
  Mn2      1.0000 0.68008  0.97811  0.76233  Biso   1.000  Mn
  H1       1.0000 0.06814  0.96260  0.11053  Biso   1.000  H
  H2       1.0000 0.93186  0.03740  0.88947  Biso   1.000  H
  H3       1.0000 0.24414  0.85562  0.06842  Biso   1.000  H
  H4       1.0000 0.75586  0.14439  0.93158  Biso   1.000  H
  H5       1.0000 0.57200  0.88549  0.05423  Biso   1.000  H
  H6       1.0000 0.42799  0.11451  0.94577  Biso   1.000  H
  H7       1.0000 0.70305  0.98763  0.10748  Biso   1.000  H
  H8       1.0000 0.29695  0.01237  0.89252  Biso   1.000  H
  H9       1.0000 0.52104  0.50880  0.09214  Biso   1.000  H
  H10      1.0000 0.47896  0.49120  0.90784  Biso   1.000  H
  H11      1.0000 0.73573  0.69707  0.11284  Biso   1.000  H
  H12      1.0000 0.26428  0.30293  0.88714  Biso   1.000  H
  H13      1.0000 0.05920  0.65128  0.15913  Biso   1.000  H
  H14      1.0000 0.94080  0.34872  0.84086  Biso   1.000  H
  H15      1.0000 0.16735  0.41336  0.18113  Biso   1.000  H
  H16      1.0000 0.83264  0.58664  0.81887  Biso   1.000  H
  H17      1.0000 0.37226  0.70741  0.21528  Biso   1.000  H
  H18      1.0000 0.62774  0.29259  0.78472  Biso   1.000  H
  H19      1.0000 0.37347  0.50233  0.34030  Biso   1.000  H
  H20      1.0000 0.62654  0.49767  0.65970  Biso   1.000  H
  H21      1.0000 0.32819  0.53277  0.55553  Biso   1.000  H
  H22      1.0000 0.67181  0.46723  0.44447  Biso   1.000  H
  H23      1.0000 0.28765  0.76187  0.63367  Biso   1.000  H
  H24      1.0000 0.71235  0.23813  0.36633  Biso   1.000  H
  H25      1.0000 0.26249  0.95717  0.68588  Biso   1.000  H
  H26      1.0000 0.73751  0.04283  0.31412  Biso   1.000  H
  H27      1.0000 0.17565  0.19109  0.74110  Biso   1.000  H
  H28      1.0000 0.82433  0.80890  0.25891  Biso   1.000  H
  H29      1.0000 0.12320  0.35815  0.58898  Biso   1.000  H
  H30      1.0000 0.87680  0.64184  0.41103  Biso   1.000  H
  H31      1.0000 0.17648  0.27994  0.38281  Biso   1.000  H
  H32      1.0000 0.82353  0.72006  0.61720  Biso   1.000  H
  C1       1.0000 0.58421  0.24398  0.12020  Biso   1.000  C
  C2       1.0000 0.41579  0.75602  0.87980  Biso   1.000  C
  C3       1.0000 0.72224  0.35565  0.12578  Biso   1.000  C
  C4       1.0000 0.27776  0.64435  0.87422  Biso   1.000  C
  C5       1.0000 0.66238  0.48828  0.11291  Biso   1.000  C
  C6       1.0000 0.33763  0.51173  0.88708  Biso   1.000  C
  C7       1.0000 0.78301  0.59426  0.12489  Biso   1.000  C
  C8       1.0000 0.21700  0.40574  0.87510  Biso   1.000  C
  C9       1.0000 0.96426  0.56828  0.15118  Biso   1.000  C
  C10      1.0000 0.03574  0.43172  0.84881  Biso   1.000  C
  C11      1.0000 0.02471  0.43636  0.16352  Biso   1.000  C
  C12      1.0000 0.97528  0.56364  0.83648  Biso   1.000  C
  C13      1.0000 0.90613  0.32891  0.14986  Biso   1.000  C
  C14      1.0000 0.09386  0.67109  0.85014  Biso   1.000  C
  C15      1.0000 0.98266  0.18844  0.15640  Biso   1.000  C
  C16      1.0000 0.01733  0.81156  0.84360  Biso   1.000  C
  C17      1.0000 0.34979  0.71452  0.30872  Biso   1.000  C
  C18      1.0000 0.65021  0.28548  0.69128  Biso   1.000  C
  C19      1.0000 0.35053  0.60101  0.37884  Biso   1.000  C
  C20      1.0000 0.64947  0.39899  0.62116  Biso   1.000  C
  C21      1.0000 0.32628  0.61832  0.49744  Biso   1.000  C
  C22      1.0000 0.67372  0.38168  0.50255  Biso   1.000  C
  C23      1.0000 0.30182  0.74684  0.54176  Biso   1.000  C
  C24      1.0000 0.69818  0.25316  0.45824  Biso   1.000  C
  C25      1.0000 0.29757  0.85542  0.46600  Biso   1.000  C
  C26      1.0000 0.70243  0.14458  0.53400  Biso   1.000  C
  C27      1.0000 0.25909  0.99442  0.50590  Biso   1.000  C
  C28      1.0000 0.74092  0.00558  0.49410  Biso   1.000  C
  C29      1.0000 0.23993  0.03037  0.62094  Biso   1.000  C
  C30      1.0000 0.76007  0.96962  0.37906  Biso   1.000  C
  C31      1.0000 0.19228  0.16239  0.65173  Biso   1.000  C
  C32      1.0000 0.80772  0.83760  0.34827  Biso   1.000  C
  C33      1.0000 0.16578  0.25503  0.56708  Biso   1.000  C
  C34      1.0000 0.83422  0.74497  0.43292  Biso   1.000  C
  C35      1.0000 0.19328  0.21269  0.45353  Biso   1.000  C
  C36      1.0000 0.80673  0.78732  0.54647  Biso   1.000  C
  N1       1.0000 0.32269  0.83846  0.35100  Biso   1.000  N
  N2       1.0000 0.67731  0.16154  0.64900  Biso   1.000  N
  N3       1.0000 0.23892  0.08555  0.42360  Biso   1.000  N
  N4       1.0000 0.76109  0.91446  0.57640  Biso   1.000  N
  O1       1.0000 0.51455  0.18539  0.21640  Biso   1.000  O
  O2       1.0000 0.48545  0.81461  0.78360  Biso   1.000  O
  O3       1.0000 0.54418  0.21912  0.02369  Biso   1.000  O
  O4       1.0000 0.45581  0.78088  0.97631  Biso   1.000  O
  O5       1.0000 0.91816  0.09501  0.10349  Biso   1.000  O
  O6       1.0000 0.08184  0.90499  0.89652  Biso   1.000  O
  O7       1.0000 0.11338  0.17237  0.21479  Biso   1.000  O
  O8       1.0000 0.88661  0.82763  0.78523  Biso   1.000  O
  O9       1.0000 0.16520  0.90090  0.13642  Biso   1.000  O
  O10      1.0000 0.83480  0.09910  0.86359  Biso   1.000  O
  O11      1.0000 0.59355  0.92490  0.12658  Biso   1.000  O
  O12      1.0000 0.40644  0.07510  0.87342  Biso   1.000  O
