data_image0
_cell_length_a       7.20226
_cell_length_b       9.62662
_cell_length_c       11.1854
_cell_angle_alpha    65.6608
_cell_angle_beta     83.8103
_cell_angle_gamma    69.5532

_symmetry_space_group_name_H-M    "P 1"
_symmetry_int_tables_number       1

loop_
  _symmetry_equiv_pos_as_xyz
  'x, y, z'

loop_
  _atom_site_label
  _atom_site_occupancy
  _atom_site_fract_x
  _atom_site_fract_y
  _atom_site_fract_z
  _atom_site_thermal_displace_type
  _atom_site_B_iso_or_equiv
  _atom_site_type_symbol
  H1       1.0000 0.67184  0.58164  0.92849  Biso   1.000  H
  H2       1.0000 0.32818  0.41836  0.07151  Biso   1.000  H
  H3       1.0000 0.09045  0.15585  0.55154  Biso   1.000  H
  H4       1.0000 0.90950  0.84416  0.44843  Biso   1.000  H
  H5       1.0000 0.06779  0.20162  0.31545  Biso   1.000  H
  H6       1.0000 0.93224  0.79840  0.68452  Biso   1.000  H
  H7       1.0000 0.54190  0.69439  0.61744  Biso   1.000  H
  H8       1.0000 0.45802  0.30559  0.38258  Biso   1.000  H
  H9       1.0000 0.33587  0.89474  0.70391  Biso   1.000  H
  H10      1.0000 0.66402  0.10526  0.29609  Biso   1.000  H
  H11      1.0000 0.76202  0.50065  0.39197  Biso   1.000  H
  H12      1.0000 0.23807  0.49938  0.60803  Biso   1.000  H
  H13      1.0000 0.64531  0.51196  0.53922  Biso   1.000  H
  H14      1.0000 0.35469  0.48800  0.46077  Biso   1.000  H
  H15      1.0000 0.81466  0.61520  0.46640  Biso   1.000  H
  H16      1.0000 0.18531  0.38482  0.53366  Biso   1.000  H
  H17      1.0000 0.88147  0.33837  0.05470  Biso   1.000  H
  H18      1.0000 0.11854  0.66162  0.94531  Biso   1.000  H
  H19      1.0000 0.75194  0.35290  0.19732  Biso   1.000  H
  H20      1.0000 0.24812  0.64709  0.80269  Biso   1.000  H
  H21      1.0000 0.94829  0.43458  0.14309  Biso   1.000  H
  H22      1.0000 0.05175  0.56542  0.85689  Biso   1.000  H
  Pb1      1.0000 0.23380  0.01829  0.10373  Biso   1.000  Pb
  Pb2      1.0000 0.76624  0.98171  0.89625  Biso   1.000  Pb
  C1       1.0000 0.41319  0.84035  0.41809  Biso   1.000  C
  C2       1.0000 0.58681  0.15965  0.58192  Biso   1.000  C
  C3       1.0000 0.43443  0.80650  0.55186  Biso   1.000  C
  C4       1.0000 0.56552  0.19349  0.44815  Biso   1.000  C
  C5       1.0000 0.31823  0.91972  0.60057  Biso   1.000  C
  C6       1.0000 0.68170  0.08028  0.39943  Biso   1.000  C
  C7       1.0000 0.18372  0.06489  0.51644  Biso   1.000  C
  C8       1.0000 0.81624  0.93512  0.48354  Biso   1.000  C
  C9       1.0000 0.17019  0.08997  0.38545  Biso   1.000  C
  C10      1.0000 0.82982  0.91004  0.61453  Biso   1.000  C
  C11      1.0000 0.53452  0.72665  0.36124  Biso   1.000  C
  C12      1.0000 0.46549  0.27334  0.63876  Biso   1.000  C
  C13      1.0000 0.69754  0.57922  0.44443  Biso   1.000  C
  C14      1.0000 0.30248  0.42079  0.55558  Biso   1.000  C
  C15      1.0000 0.57706  0.68178  0.06516  Biso   1.000  C
  C16      1.0000 0.42296  0.31821  0.93484  Biso   1.000  C
  C17      1.0000 0.82497  0.41427  0.11034  Biso   1.000  C
  C18      1.0000 0.17506  0.58572  0.88966  Biso   1.000  C
  C19      1.0000 0.13830  0.62257  0.21131  Biso   1.000  C
  C20      1.0000 0.86168  0.37746  0.78869  Biso   1.000  C
  S1       1.0000 0.42226  0.85949  0.94381  Biso   1.000  S
  S2       1.0000 0.57778  0.14051  0.05619  Biso   1.000  S
  S3       1.0000 0.99693  0.79812  0.21203  Biso   1.000  S
  S4       1.0000 0.00308  0.20191  0.78797  Biso   1.000  S
  N1       1.0000 0.28009  0.98139  0.33820  Biso   1.000  N
  N2       1.0000 0.71993  0.01861  0.66178  Biso   1.000  N
  N3       1.0000 0.49702  0.76012  0.23772  Biso   1.000  N
  N4       1.0000 0.50299  0.23987  0.76229  Biso   1.000  N
  N5       1.0000 0.60635  0.65107  0.19007  Biso   1.000  N
  N6       1.0000 0.39366  0.34891  0.80994  Biso   1.000  N
  N7       1.0000 0.68512  0.56566  0.02421  Biso   1.000  N
  N8       1.0000 0.31489  0.43433  0.97580  Biso   1.000  N
  N9       1.0000 0.23609  0.49463  0.21170  Biso   1.000  N
  N10      1.0000 0.76387  0.50539  0.78830  Biso   1.000  N
