data_image0
_cell_length_a       7.20186
_cell_length_b       11.1894
_cell_length_c       16.7044
_cell_angle_alpha    90
_cell_angle_beta     90
_cell_angle_gamma    90

_symmetry_space_group_name_H-M    "P 1"
_symmetry_int_tables_number       1

loop_
  _symmetry_equiv_pos_as_xyz
  'x, y, z'

loop_
  _atom_site_label
  _atom_site_occupancy
  _atom_site_fract_x
  _atom_site_fract_y
  _atom_site_fract_z
  _atom_site_thermal_displace_type
  _atom_site_B_iso_or_equiv
  _atom_site_type_symbol
  Ba1      1.0000 0.11766  0.34298  0.89216  Biso   1.000  Ba
  Ba2      1.0000 0.88233  0.84298  0.10784  Biso   1.000  Ba
  Ba3      1.0000 0.61767  0.34298  0.60784  Biso   1.000  Ba
  Ba4      1.0000 0.38234  0.84298  0.39217  Biso   1.000  Ba
  H1       1.0000 0.34198  0.86560  0.91198  Biso   1.000  H
  H2       1.0000 0.65800  0.36560  0.08802  Biso   1.000  H
  H3       1.0000 0.84200  0.86560  0.58803  Biso   1.000  H
  H4       1.0000 0.15802  0.36560  0.41198  Biso   1.000  H
  H5       1.0000 0.46911  0.66937  0.69595  Biso   1.000  H
  H6       1.0000 0.53090  0.16936  0.30405  Biso   1.000  H
  H7       1.0000 0.96912  0.66937  0.80405  Biso   1.000  H
  H8       1.0000 0.03089  0.16937  0.19595  Biso   1.000  H
  H9       1.0000 0.28948  0.03841  0.68568  Biso   1.000  H
  H10      1.0000 0.71050  0.53842  0.31432  Biso   1.000  H
  H11      1.0000 0.78949  0.03842  0.81432  Biso   1.000  H
  H12      1.0000 0.21051  0.53841  0.18568  Biso   1.000  H
  H13      1.0000 0.31257  0.02018  0.57091  Biso   1.000  H
  H14      1.0000 0.68742  0.52017  0.42909  Biso   1.000  H
  H15      1.0000 0.81258  0.02018  0.92909  Biso   1.000  H
  H16      1.0000 0.18741  0.52018  0.07091  Biso   1.000  H
  H17      1.0000 0.84930  0.17474  0.98297  Biso   1.000  H
  H18      1.0000 0.15070  0.67475  0.01703  Biso   1.000  H
  H19      1.0000 0.34931  0.17474  0.51703  Biso   1.000  H
  H20      1.0000 0.65071  0.67474  0.48297  Biso   1.000  H
  H21      1.0000 0.69371  0.20267  0.91874  Biso   1.000  H
  H22      1.0000 0.30629  0.70268  0.08126  Biso   1.000  H
  H23      1.0000 0.19371  0.20268  0.58125  Biso   1.000  H
  H24      1.0000 0.80630  0.70268  0.41874  Biso   1.000  H
  H25      1.0000 0.74289  0.50913  0.90594  Biso   1.000  H
  H26      1.0000 0.25710  0.00913  0.09407  Biso   1.000  H
  H27      1.0000 0.24290  0.50913  0.59406  Biso   1.000  H
  H28      1.0000 0.75710  0.00913  0.40594  Biso   1.000  H
  H29      1.0000 0.78589  0.50616  0.99923  Biso   1.000  H
  H30      1.0000 0.21409  0.00614  0.00077  Biso   1.000  H
  H31      1.0000 0.28590  0.50615  0.50076  Biso   1.000  H
  H32      1.0000 0.71410  0.00614  0.49924  Biso   1.000  H
  H33      1.0000 0.48372  0.25763  0.97933  Biso   1.000  H
  H34      1.0000 0.51627  0.75764  0.02067  Biso   1.000  H
  H35      1.0000 0.98373  0.25764  0.52067  Biso   1.000  H
  H36      1.0000 0.01628  0.75764  0.47933  Biso   1.000  H
  H37      1.0000 0.59577  0.36499  0.93960  Biso   1.000  H
  H38      1.0000 0.40422  0.86499  0.06041  Biso   1.000  H
  H39      1.0000 0.09578  0.36500  0.56040  Biso   1.000  H
  H40      1.0000 0.90423  0.86499  0.43960  Biso   1.000  H
  H41      1.0000 0.88459  0.28879  0.73667  Biso   1.000  H
  H42      1.0000 0.11541  0.78879  0.26333  Biso   1.000  H
  H43      1.0000 0.38459  0.28878  0.76333  Biso   1.000  H
  H44      1.0000 0.61541  0.78879  0.23667  Biso   1.000  H
  H45      1.0000 0.97564  0.41907  0.72168  Biso   1.000  H
  H46      1.0000 0.02437  0.91907  0.27831  Biso   1.000  H
  H47      1.0000 0.47563  0.41907  0.77831  Biso   1.000  H
  H48      1.0000 0.52436  0.91907  0.22168  Biso   1.000  H
  C1       1.0000 0.42162  0.75043  0.72561  Biso   1.000  C
  C2       1.0000 0.57838  0.25043  0.27439  Biso   1.000  C
  C3       1.0000 0.92162  0.75043  0.77439  Biso   1.000  C
  C4       1.0000 0.07839  0.25043  0.22561  Biso   1.000  C
  C5       1.0000 0.40542  0.75619  0.80847  Biso   1.000  C
  C6       1.0000 0.59458  0.25619  0.19153  Biso   1.000  C
  C7       1.0000 0.90542  0.75619  0.69154  Biso   1.000  C
  C8       1.0000 0.09458  0.25619  0.30846  Biso   1.000  C
  C9       1.0000 0.35175  0.86160  0.84705  Biso   1.000  C
  C10      1.0000 0.64824  0.36159  0.15295  Biso   1.000  C
  C11      1.0000 0.85176  0.86160  0.65296  Biso   1.000  C
  C12      1.0000 0.14825  0.36159  0.34705  Biso   1.000  C
  C13      1.0000 0.31085  0.96293  0.80186  Biso   1.000  C
  C14      1.0000 0.68915  0.46293  0.19815  Biso   1.000  C
  C15      1.0000 0.81085  0.96293  0.69815  Biso   1.000  C
  C16      1.0000 0.18914  0.46292  0.30185  Biso   1.000  C
  C17      1.0000 0.32233  0.95721  0.71854  Biso   1.000  C
  C18      1.0000 0.67767  0.45721  0.28146  Biso   1.000  C
  C19      1.0000 0.82233  0.95722  0.78146  Biso   1.000  C
  C20      1.0000 0.17768  0.45721  0.21854  Biso   1.000  C
  C21      1.0000 0.37834  0.85237  0.68032  Biso   1.000  C
  C22      1.0000 0.62164  0.35238  0.31968  Biso   1.000  C
  C23      1.0000 0.87834  0.85237  0.81968  Biso   1.000  C
  C24      1.0000 0.12166  0.35237  0.18032  Biso   1.000  C
  C25      1.0000 0.39450  0.84591  0.59214  Biso   1.000  C
  C26      1.0000 0.60551  0.34591  0.40787  Biso   1.000  C
  C27      1.0000 0.89449  0.84591  0.90786  Biso   1.000  C
  C28      1.0000 0.10550  0.34591  0.09214  Biso   1.000  C
  C29      1.0000 0.25289  0.07925  0.83945  Biso   1.000  C
  C30      1.0000 0.74710  0.57925  0.16055  Biso   1.000  C
  C31      1.0000 0.75290  0.07926  0.66055  Biso   1.000  C
  C32      1.0000 0.24710  0.57925  0.33946  Biso   1.000  C
  S1       1.0000 0.45144  0.62840  0.86853  Biso   1.000  S
  S2       1.0000 0.54854  0.12840  0.13147  Biso   1.000  S
  S3       1.0000 0.95147  0.62841  0.63147  Biso   1.000  S
  S4       1.0000 0.04855  0.12840  0.36853  Biso   1.000  S
  O1       1.0000 0.32674  0.93563  0.54779  Biso   1.000  O
  O2       1.0000 0.67324  0.43562  0.45221  Biso   1.000  O
  O3       1.0000 0.82674  0.93563  0.95221  Biso   1.000  O
  O4       1.0000 0.17323  0.43563  0.04779  Biso   1.000  O
  O5       1.0000 0.46255  0.75931  0.55672  Biso   1.000  O
  O6       1.0000 0.53749  0.25930  0.44329  Biso   1.000  O
  O7       1.0000 0.96251  0.75930  0.94329  Biso   1.000  O
  O8       1.0000 0.03746  0.25931  0.05671  Biso   1.000  O
  O9       1.0000 0.27084  0.57216  0.88515  Biso   1.000  O
  O10      1.0000 0.72914  0.07217  0.11484  Biso   1.000  O
  O11      1.0000 0.77087  0.57216  0.61484  Biso   1.000  O
  O12      1.0000 0.22915  0.07216  0.38515  Biso   1.000  O
  O13      1.0000 0.81598  0.16119  0.92661  Biso   1.000  O
  O14      1.0000 0.18401  0.66118  0.07339  Biso   1.000  O
  O15      1.0000 0.31598  0.16118  0.57339  Biso   1.000  O
  O16      1.0000 0.68402  0.66118  0.42661  Biso   1.000  O
  O17      1.0000 0.79160  0.45748  0.94891  Biso   1.000  O
  O18      1.0000 0.20838  0.95747  0.05109  Biso   1.000  O
  O19      1.0000 0.29162  0.45748  0.55109  Biso   1.000  O
  O20      1.0000 0.70839  0.95748  0.44891  Biso   1.000  O
  O21      1.0000 0.50695  0.29892  0.92735  Biso   1.000  O
  O22      1.0000 0.49304  0.79892  0.07265  Biso   1.000  O
  O23      1.0000 0.00697  0.29893  0.57264  Biso   1.000  O
  O24      1.0000 0.99304  0.79892  0.42735  Biso   1.000  O
  O25      1.0000 0.23811  0.16833  0.79208  Biso   1.000  O
  O26      1.0000 0.76188  0.66833  0.20792  Biso   1.000  O
  O27      1.0000 0.73812  0.16833  0.70792  Biso   1.000  O
  O28      1.0000 0.26189  0.66833  0.29208  Biso   1.000  O
  O29      1.0000 0.21894  0.08507  0.91391  Biso   1.000  O
  O30      1.0000 0.78105  0.58508  0.08608  Biso   1.000  O
  O31      1.0000 0.71895  0.08507  0.58608  Biso   1.000  O
  O32      1.0000 0.28105  0.58507  0.41391  Biso   1.000  O
  O33      1.0000 0.89989  0.37023  0.75866  Biso   1.000  O
  O34      1.0000 0.10011  0.87024  0.24133  Biso   1.000  O
  O35      1.0000 0.39989  0.37023  0.74133  Biso   1.000  O
  O36      1.0000 0.60011  0.87024  0.25867  Biso   1.000  O
  O37      1.0000 0.54344  0.67516  0.94033  Biso   1.000  O
  O38      1.0000 0.45653  0.17516  0.05968  Biso   1.000  O
  O39      1.0000 0.04348  0.67517  0.55968  Biso   1.000  O
  O40      1.0000 0.95656  0.17515  0.44033  Biso   1.000  O
  O41      1.0000 0.57778  0.55049  0.82233  Biso   1.000  O
  O42      1.0000 0.42223  0.05049  0.17768  Biso   1.000  O
  O43      1.0000 0.07778  0.55050  0.67768  Biso   1.000  O
  O44      1.0000 0.92222  0.05050  0.32232  Biso   1.000  O
