data_image0
_cell_length_a       5.98605
_cell_length_b       8.88981
_cell_length_c       13.6276
_cell_angle_alpha    90.0005
_cell_angle_beta     89.9987
_cell_angle_gamma    89.9997

_symmetry_space_group_name_H-M    "P 1"
_symmetry_int_tables_number       1

loop_
  _symmetry_equiv_pos_as_xyz
  'x, y, z'

loop_
  _atom_site_label
  _atom_site_occupancy
  _atom_site_fract_x
  _atom_site_fract_y
  _atom_site_fract_z
  _atom_site_thermal_displace_type
  _atom_site_B_iso_or_equiv
  _atom_site_type_symbol
  In1      1.0000 0.89549  0.25001  0.81853  Biso   1.000  In
  In2      1.0000 0.39549  0.74999  0.68147  Biso   1.000  In
  In3      1.0000 0.60451  0.25000  0.31853  Biso   1.000  In
  In4      1.0000 0.10451  0.75000  0.18148  Biso   1.000  In
  H1       1.0000 0.63736  0.25000  0.63989  Biso   1.000  H
  H2       1.0000 0.13734  0.75000  0.86011  Biso   1.000  H
  H3       1.0000 0.86264  0.25000  0.13990  Biso   1.000  H
  H4       1.0000 0.36263  0.75000  0.36010  Biso   1.000  H
  H5       1.0000 0.75836  0.46717  0.58996  Biso   1.000  H
  H6       1.0000 0.25835  0.53283  0.91005  Biso   1.000  H
  H7       1.0000 0.74165  0.03283  0.08996  Biso   1.000  H
  H8       1.0000 0.24164  0.96716  0.41005  Biso   1.000  H
  H9       1.0000 0.24163  0.53284  0.41004  Biso   1.000  H
  H10      1.0000 0.74165  0.46716  0.08996  Biso   1.000  H
  H11      1.0000 0.25836  0.96717  0.91003  Biso   1.000  H
  H12      1.0000 0.75837  0.03283  0.58997  Biso   1.000  H
  H13      1.0000 0.97534  0.36435  0.53506  Biso   1.000  H
  H14      1.0000 0.47533  0.63565  0.96494  Biso   1.000  H
  H15      1.0000 0.52467  0.13564  0.03505  Biso   1.000  H
  H16      1.0000 0.02465  0.86436  0.46495  Biso   1.000  H
  H17      1.0000 0.02466  0.63564  0.46494  Biso   1.000  H
  H18      1.0000 0.52467  0.36436  0.03505  Biso   1.000  H
  H19      1.0000 0.47534  0.86436  0.96494  Biso   1.000  H
  H20      1.0000 0.97534  0.13564  0.53506  Biso   1.000  H
  C1       1.0000 0.06209  0.47358  0.66882  Biso   1.000  C
  C2       1.0000 0.56209  0.52642  0.83119  Biso   1.000  C
  C3       1.0000 0.43793  0.02640  0.16881  Biso   1.000  C
  C4       1.0000 0.93792  0.97359  0.33118  Biso   1.000  C
  C5       1.0000 0.93792  0.52642  0.33118  Biso   1.000  C
  C6       1.0000 0.43793  0.47361  0.16881  Biso   1.000  C
  C7       1.0000 0.56209  0.97358  0.83117  Biso   1.000  C
  C8       1.0000 0.06209  0.02641  0.66883  Biso   1.000  C
  C9       1.0000 0.89564  0.38920  0.60573  Biso   1.000  C
  C10      1.0000 0.39564  0.61078  0.89428  Biso   1.000  C
  C11      1.0000 0.60437  0.11079  0.10572  Biso   1.000  C
  C12      1.0000 0.10437  0.88920  0.39428  Biso   1.000  C
  C13      1.0000 0.10437  0.61080  0.39428  Biso   1.000  C
  C14      1.0000 0.60436  0.38920  0.10572  Biso   1.000  C
  C15      1.0000 0.39563  0.88921  0.89427  Biso   1.000  C
  C16      1.0000 0.89563  0.11080  0.60573  Biso   1.000  C
  N1       1.0000 0.80654  0.24999  0.65071  Biso   1.000  N
  N2       1.0000 0.30652  0.75000  0.84928  Biso   1.000  N
  N3       1.0000 0.69346  0.24999  0.15071  Biso   1.000  N
  N4       1.0000 0.19345  0.75000  0.34929  Biso   1.000  N
  Cl1      1.0000 0.09740  0.25001  0.97420  Biso   1.000  Cl
  Cl2      1.0000 0.59741  0.74999  0.52580  Biso   1.000  Cl
  Cl3      1.0000 0.40259  0.25000  0.47420  Biso   1.000  Cl
  Cl4      1.0000 0.90259  0.75000  0.02581  Biso   1.000  Cl
  O1       1.0000 0.10733  0.43136  0.75576  Biso   1.000  O
  O2       1.0000 0.60733  0.56864  0.74424  Biso   1.000  O
  O3       1.0000 0.39266  0.06864  0.25576  Biso   1.000  O
  O4       1.0000 0.89267  0.93138  0.24425  Biso   1.000  O
  O5       1.0000 0.89266  0.56864  0.24425  Biso   1.000  O
  O6       1.0000 0.39265  0.43137  0.25575  Biso   1.000  O
  O7       1.0000 0.60733  0.93135  0.74423  Biso   1.000  O
  O8       1.0000 0.10733  0.06864  0.75576  Biso   1.000  O
  O9       1.0000 0.14916  0.58780  0.62772  Biso   1.000  O
  O10      1.0000 0.64912  0.41219  0.87228  Biso   1.000  O
  O11      1.0000 0.35088  0.91218  0.12773  Biso   1.000  O
  O12      1.0000 0.85085  0.08783  0.37228  Biso   1.000  O
  O13      1.0000 0.85085  0.41218  0.37228  Biso   1.000  O
  O14      1.0000 0.35086  0.58781  0.12773  Biso   1.000  O
  O15      1.0000 0.64914  0.08780  0.87227  Biso   1.000  O
  O16      1.0000 0.14915  0.91218  0.62773  Biso   1.000  O
