data_image0
_cell_length_a       3.90938
_cell_length_b       11.919
_cell_length_c       12.2114
_cell_angle_alpha    94.109
_cell_angle_beta     93.4463
_cell_angle_gamma    92.9322

_symmetry_space_group_name_H-M    "P 1"
_symmetry_int_tables_number       1

loop_
  _symmetry_equiv_pos_as_xyz
  'x, y, z'

loop_
  _atom_site_label
  _atom_site_occupancy
  _atom_site_fract_x
  _atom_site_fract_y
  _atom_site_fract_z
  _atom_site_thermal_displace_type
  _atom_site_B_iso_or_equiv
  _atom_site_type_symbol
  H1       1.0000 0.99011  0.47186  0.09278  Biso   1.000  H
  H2       1.0000 0.01046  0.52816  0.90731  Biso   1.000  H
  H3       1.0000 0.79048  0.27110  0.08271  Biso   1.000  H
  H4       1.0000 0.20960  0.72887  0.91730  Biso   1.000  H
  H5       1.0000 0.52253  0.32284  0.42128  Biso   1.000  H
  H6       1.0000 0.47707  0.67721  0.57868  Biso   1.000  H
  H7       1.0000 0.74621  0.52311  0.41714  Biso   1.000  H
  H8       1.0000 0.25367  0.47694  0.58286  Biso   1.000  H
  H9       1.0000 0.50326  0.93956  0.41529  Biso   1.000  H
  H10      1.0000 0.49671  0.06052  0.58478  Biso   1.000  H
  H11      1.0000 0.67677  0.14470  0.42356  Biso   1.000  H
  H12      1.0000 0.32302  0.85537  0.57644  Biso   1.000  H
  H13      1.0000 0.34600  0.13773  0.07827  Biso   1.000  H
  H14      1.0000 0.65400  0.86210  0.92161  Biso   1.000  H
  H15      1.0000 0.19031  0.93178  0.08555  Biso   1.000  H
  H16      1.0000 0.80971  0.06806  0.91454  Biso   1.000  H
  Pb1      1.0000 0.28351  0.71084  0.25347  Biso   1.000  Pb
  Pb2      1.0000 0.71609  0.28946  0.74648  Biso   1.000  Pb
  C1       1.0000 0.88478  0.43588  0.16421  Biso   1.000  C
  C2       1.0000 0.11556  0.56410  0.83581  Biso   1.000  C
  C3       1.0000 0.76996  0.32313  0.15873  Biso   1.000  C
  C4       1.0000 0.22996  0.67687  0.84125  Biso   1.000  C
  C5       1.0000 0.63894  0.27896  0.25197  Biso   1.000  C
  C6       1.0000 0.36080  0.72107  0.74799  Biso   1.000  C
  C7       1.0000 0.62786  0.35200  0.34699  Biso   1.000  C
  C8       1.0000 0.37191  0.64802  0.65299  Biso   1.000  C
  C9       1.0000 0.74935  0.46351  0.34487  Biso   1.000  C
  C10      1.0000 0.25072  0.53647  0.65513  Biso   1.000  C
  C11      1.0000 0.46854  0.98742  0.34309  Biso   1.000  C
  C12      1.0000 0.53158  0.01262  0.65695  Biso   1.000  C
  C13      1.0000 0.56323  0.10164  0.34717  Biso   1.000  C
  C14      1.0000 0.43667  0.89841  0.65282  Biso   1.000  C
  C15      1.0000 0.52599  0.15883  0.25114  Biso   1.000  C
  C16      1.0000 0.47391  0.84118  0.74882  Biso   1.000  C
  C17      1.0000 0.38674  0.09709  0.15500  Biso   1.000  C
  C18      1.0000 0.61333  0.90282  0.84495  Biso   1.000  C
  C19      1.0000 0.29842  0.98289  0.15837  Biso   1.000  C
  C20      1.0000 0.70174  0.01705  0.84164  Biso   1.000  C
  N1       1.0000 0.87649  0.50571  0.25537  Biso   1.000  N
  N2       1.0000 0.12403  0.49429  0.74469  Biso   1.000  N
  N3       1.0000 0.34152  0.92835  0.25045  Biso   1.000  N
  N4       1.0000 0.65870  0.07167  0.74960  Biso   1.000  N
  Cl1      1.0000 0.78807  0.73227  0.08345  Biso   1.000  Cl
  Cl2      1.0000 0.21192  0.26762  0.91639  Biso   1.000  Cl
  Cl3      1.0000 0.86452  0.75653  0.42725  Biso   1.000  Cl
  Cl4      1.0000 0.13529  0.24337  0.57285  Biso   1.000  Cl
