data_image0
_cell_length_a       6.96988
_cell_length_b       13.9457
_cell_length_c       14.363
_cell_angle_alpha    90
_cell_angle_beta     90
_cell_angle_gamma    90

_symmetry_space_group_name_H-M    "P 1"
_symmetry_int_tables_number       1

loop_
  _symmetry_equiv_pos_as_xyz
  'x, y, z'

loop_
  _atom_site_label
  _atom_site_occupancy
  _atom_site_fract_x
  _atom_site_fract_y
  _atom_site_fract_z
  _atom_site_thermal_displace_type
  _atom_site_B_iso_or_equiv
  _atom_site_type_symbol
  Hg1      1.0000 0.76041  0.00000  1.00000  Biso   1.000  Hg
  Hg2      1.0000 0.23959  0.50000  0.50000  Biso   1.000  Hg
  H1       1.0000 0.84577  0.01764  0.78008  Biso   1.000  H
  H2       1.0000 0.84576  0.98235  0.21991  Biso   1.000  H
  H3       1.0000 0.15424  0.48236  0.28009  Biso   1.000  H
  H4       1.0000 0.15424  0.51765  0.71991  Biso   1.000  H
  H5       1.0000 0.09821  0.99794  0.65941  Biso   1.000  H
  H6       1.0000 0.09821  0.00205  0.34059  Biso   1.000  H
  H7       1.0000 0.90179  0.50205  0.15941  Biso   1.000  H
  H8       1.0000 0.90179  0.49795  0.84059  Biso   1.000  H
  H9       1.0000 0.46586  0.88313  0.87509  Biso   1.000  H
  H10      1.0000 0.46585  0.11687  0.12492  Biso   1.000  H
  H11      1.0000 0.53415  0.61688  0.37508  Biso   1.000  H
  H12      1.0000 0.53414  0.38313  0.62492  Biso   1.000  H
  H13      1.0000 0.19830  0.90147  0.98395  Biso   1.000  H
  H14      1.0000 0.19830  0.09853  0.01605  Biso   1.000  H
  H15      1.0000 0.80170  0.59853  0.48395  Biso   1.000  H
  H16      1.0000 0.80169  0.40147  0.51605  Biso   1.000  H
  H17      1.0000 0.59084  0.80946  0.76190  Biso   1.000  H
  H18      1.0000 0.59084  0.19054  0.23811  Biso   1.000  H
  H19      1.0000 0.40916  0.69054  0.26190  Biso   1.000  H
  H20      1.0000 0.40916  0.30946  0.73810  Biso   1.000  H
  H21      1.0000 0.85857  0.72073  0.72076  Biso   1.000  H
  H22      1.0000 0.85857  0.27927  0.27924  Biso   1.000  H
  H23      1.0000 0.14144  0.77927  0.22076  Biso   1.000  H
  H24      1.0000 0.14144  0.22073  0.77924  Biso   1.000  H
  H25      1.0000 0.04024  0.78683  0.66198  Biso   1.000  H
  H26      1.0000 0.04024  0.21317  0.33802  Biso   1.000  H
  H27      1.0000 0.95975  0.71317  0.16198  Biso   1.000  H
  H28      1.0000 0.95976  0.28683  0.83802  Biso   1.000  H
  H29      1.0000 0.89483  0.70685  0.59932  Biso   1.000  H
  H30      1.0000 0.89483  0.29315  0.40068  Biso   1.000  H
  H31      1.0000 0.10518  0.79315  0.09931  Biso   1.000  H
  H32      1.0000 0.10518  0.20685  0.90068  Biso   1.000  H
  H33      1.0000 0.90430  0.91812  0.42460  Biso   1.000  H
  H34      1.0000 0.90431  0.08187  0.57540  Biso   1.000  H
  H35      1.0000 0.09570  0.58188  0.92461  Biso   1.000  H
  H36      1.0000 0.09570  0.41812  0.07540  Biso   1.000  H
  H37      1.0000 0.90952  0.79715  0.46347  Biso   1.000  H
  H38      1.0000 0.90952  0.20284  0.53652  Biso   1.000  H
  H39      1.0000 0.09047  0.70284  0.96348  Biso   1.000  H
  H40      1.0000 0.09047  0.29716  0.03653  Biso   1.000  H
  H41      1.0000 0.06312  0.88246  0.51474  Biso   1.000  H
  H42      1.0000 0.06312  0.11754  0.48525  Biso   1.000  H
  H43      1.0000 0.93688  0.61754  0.01475  Biso   1.000  H
  H44      1.0000 0.93688  0.38246  0.98525  Biso   1.000  H
  H45      1.0000 0.30233  0.20083  0.61499  Biso   1.000  H
  H46      1.0000 0.30233  0.79917  0.38501  Biso   1.000  H
  H47      1.0000 0.69767  0.29917  0.11499  Biso   1.000  H
  H48      1.0000 0.69767  0.70083  0.88501  Biso   1.000  H
  H49      1.0000 0.55221  0.17473  0.60273  Biso   1.000  H
  H50      1.0000 0.55221  0.82527  0.39727  Biso   1.000  H
  H51      1.0000 0.44779  0.32527  0.10273  Biso   1.000  H
  H52      1.0000 0.44780  0.67473  0.89727  Biso   1.000  H
  H53      1.0000 0.42986  0.14153  0.70834  Biso   1.000  H
  H54      1.0000 0.42986  0.85847  0.29166  Biso   1.000  H
  H55      1.0000 0.57014  0.35847  0.20834  Biso   1.000  H
  H56      1.0000 0.57014  0.64153  0.79166  Biso   1.000  H
  C1       1.0000 0.98520  0.98693  0.79768  Biso   1.000  C
  C2       1.0000 0.98520  0.01307  0.20232  Biso   1.000  C
  C3       1.0000 0.01480  0.51307  0.29769  Biso   1.000  C
  C4       1.0000 0.01480  0.48693  0.70232  Biso   1.000  C
  C5       1.0000 0.12743  0.97689  0.73075  Biso   1.000  C
  C6       1.0000 0.12742  0.02311  0.26925  Biso   1.000  C
  C7       1.0000 0.87258  0.52311  0.23075  Biso   1.000  C
  C8       1.0000 0.87257  0.47689  0.76925  Biso   1.000  C
  C9       1.0000 0.30833  0.93989  0.75550  Biso   1.000  C
  C10      1.0000 0.30833  0.06011  0.24450  Biso   1.000  C
  C11      1.0000 0.69167  0.56011  0.25550  Biso   1.000  C
  C12      1.0000 0.69167  0.43989  0.74450  Biso   1.000  C
  C13      1.0000 0.33067  0.91168  0.84895  Biso   1.000  C
  C14      1.0000 0.33066  0.08833  0.15105  Biso   1.000  C
  C15      1.0000 0.66933  0.58832  0.34895  Biso   1.000  C
  C16      1.0000 0.66933  0.41168  0.65105  Biso   1.000  C
  C17      1.0000 0.18012  0.92238  0.91125  Biso   1.000  C
  C18      1.0000 0.18011  0.07761  0.08875  Biso   1.000  C
  C19      1.0000 0.81989  0.57762  0.41125  Biso   1.000  C
  C20      1.0000 0.81988  0.42238  0.58875  Biso   1.000  C
  C21      1.0000 0.46596  0.92827  0.68794  Biso   1.000  C
  C22      1.0000 0.46596  0.07173  0.31206  Biso   1.000  C
  C23      1.0000 0.53404  0.57173  0.18794  Biso   1.000  C
  C24      1.0000 0.53404  0.42827  0.81206  Biso   1.000  C
  C25      1.0000 0.48599  0.98572  0.60790  Biso   1.000  C
  C26      1.0000 0.48599  0.01428  0.39210  Biso   1.000  C
  C27      1.0000 0.51400  0.51428  0.10790  Biso   1.000  C
  C28      1.0000 0.51400  0.48573  0.89210  Biso   1.000  C
  C29      1.0000 0.63278  0.96923  0.54259  Biso   1.000  C
  C30      1.0000 0.63278  0.03077  0.45740  Biso   1.000  C
  C31      1.0000 0.36722  0.53077  0.04259  Biso   1.000  C
  C32      1.0000 0.36722  0.46923  0.95741  Biso   1.000  C
  C33      1.0000 0.76542  0.89451  0.55676  Biso   1.000  C
  C34      1.0000 0.76542  0.10548  0.44323  Biso   1.000  C
  C35      1.0000 0.23458  0.60548  0.05677  Biso   1.000  C
  C36      1.0000 0.23458  0.39452  0.94324  Biso   1.000  C
  C37      1.0000 0.75171  0.83825  0.63843  Biso   1.000  C
  C38      1.0000 0.75171  0.16175  0.36157  Biso   1.000  C
  C39      1.0000 0.24829  0.66175  0.13843  Biso   1.000  C
  C40      1.0000 0.24829  0.33825  0.86157  Biso   1.000  C
  C41      1.0000 0.60350  0.85577  0.70114  Biso   1.000  C
  C42      1.0000 0.60350  0.14423  0.29886  Biso   1.000  C
  C43      1.0000 0.39650  0.64424  0.20114  Biso   1.000  C
  C44      1.0000 0.39649  0.35577  0.79886  Biso   1.000  C
  C45      1.0000 0.89286  0.75930  0.65643  Biso   1.000  C
  C46      1.0000 0.89286  0.24070  0.34357  Biso   1.000  C
  C47      1.0000 0.10714  0.74070  0.15643  Biso   1.000  C
  C48      1.0000 0.10714  0.25930  0.84357  Biso   1.000  C
  C49      1.0000 0.91806  0.87244  0.48618  Biso   1.000  C
  C50      1.0000 0.91806  0.12755  0.51382  Biso   1.000  C
  C51      1.0000 0.08194  0.62755  0.98618  Biso   1.000  C
  C52      1.0000 0.08194  0.37245  0.01383  Biso   1.000  C
  C53      1.0000 0.41550  0.14919  0.63223  Biso   1.000  C
  C54      1.0000 0.41550  0.85081  0.36777  Biso   1.000  C
  C55      1.0000 0.58450  0.35081  0.13223  Biso   1.000  C
  C56      1.0000 0.58450  0.64919  0.86777  Biso   1.000  C
  I1       1.0000 0.60663  0.15823  0.91888  Biso   1.000  I
  I2       1.0000 0.60663  0.84177  0.08112  Biso   1.000  I
  I3       1.0000 0.39336  0.34177  0.41889  Biso   1.000  I
  I4       1.0000 0.39337  0.65823  0.58112  Biso   1.000  I
  N1       1.0000 0.01007  0.96060  0.88692  Biso   1.000  N
  N2       1.0000 0.01007  0.03941  0.11308  Biso   1.000  N
  N3       1.0000 0.98993  0.53941  0.38692  Biso   1.000  N
  N4       1.0000 0.98993  0.46060  0.61308  Biso   1.000  N
  O1       1.0000 0.35899  0.05987  0.59043  Biso   1.000  O
  O2       1.0000 0.35899  0.94013  0.40956  Biso   1.000  O
  O3       1.0000 0.64101  0.44013  0.09044  Biso   1.000  O
  O4       1.0000 0.64101  0.55987  0.90957  Biso   1.000  O
