data_image0
_cell_length_a       5.69406
_cell_length_b       6.33584
_cell_length_c       6.33598
_cell_angle_alpha    66.9138
_cell_angle_beta     88.9906
_cell_angle_gamma    88.9858

_symmetry_space_group_name_H-M    "P 1"
_symmetry_int_tables_number       1

loop_
  _symmetry_equiv_pos_as_xyz
  'x, y, z'

loop_
  _atom_site_label
  _atom_site_occupancy
  _atom_site_fract_x
  _atom_site_fract_y
  _atom_site_fract_z
  _atom_site_thermal_displace_type
  _atom_site_B_iso_or_equiv
  _atom_site_type_symbol
  Cu1      1.0000 1.00000  0.00001  0.00001  Biso   1.000  Cu
  H1       1.0000 0.67316  0.77235  0.41138  Biso   1.000  H
  H2       1.0000 0.32688  0.58863  0.22762  Biso   1.000  H
  H3       1.0000 0.32684  0.22764  0.58862  Biso   1.000  H
  H4       1.0000 0.67315  0.41137  0.77236  Biso   1.000  H
  C1       1.0000 0.44506  0.15871  0.15872  Biso   1.000  C
  C2       1.0000 0.55494  0.84130  0.84129  Biso   1.000  C
  C3       1.0000 0.81863  0.64963  0.45005  Biso   1.000  C
  C4       1.0000 0.18136  0.54993  0.35038  Biso   1.000  C
  C5       1.0000 0.18137  0.35038  0.54993  Biso   1.000  C
  C6       1.0000 0.81861  0.45004  0.64965  Biso   1.000  C
  S1       1.0000 0.69234  0.23116  0.23116  Biso   1.000  S
  S2       1.0000 0.30769  0.76885  0.76885  Biso   1.000  S
  N1       1.0000 0.26429  0.10542  0.10543  Biso   1.000  N
  N2       1.0000 0.73565  0.89458  0.89457  Biso   1.000  N
  N3       1.0000 0.00001  0.69804  0.30195  Biso   1.000  N
  N4       1.0000 0.00001  0.30196  0.69804  Biso   1.000  N
