data_image0
_cell_length_a       5.56142
_cell_length_b       8.97954
_cell_length_c       18.5694
_cell_angle_alpha    77.1043
_cell_angle_beta     81.5704
_cell_angle_gamma    82.795

_symmetry_space_group_name_H-M    "P 1"
_symmetry_int_tables_number       1

loop_
  _symmetry_equiv_pos_as_xyz
  'x, y, z'

loop_
  _atom_site_label
  _atom_site_occupancy
  _atom_site_fract_x
  _atom_site_fract_y
  _atom_site_fract_z
  _atom_site_thermal_displace_type
  _atom_site_B_iso_or_equiv
  _atom_site_type_symbol
  Cu1      1.0000 0.98132  0.58379  0.41820  Biso   1.000  Cu
  Cu2      1.0000 0.01595  0.41653  0.58149  Biso   1.000  Cu
  Cu3      1.0000 0.50052  0.49917  0.50035  Biso   1.000  Cu
  H1       1.0000 0.91125  0.76060  0.26875  Biso   1.000  H
  H2       1.0000 0.08871  0.23936  0.73077  Biso   1.000  H
  H3       1.0000 0.12197  0.78922  0.13992  Biso   1.000  H
  H4       1.0000 0.87946  0.21128  0.85979  Biso   1.000  H
  H5       1.0000 0.71835  0.47799  0.23001  Biso   1.000  H
  H6       1.0000 0.28184  0.52199  0.77010  Biso   1.000  H
  H7       1.0000 0.47863  0.45444  0.35343  Biso   1.000  H
  H8       1.0000 0.52011  0.54514  0.64651  Biso   1.000  H
  H9       1.0000 0.19399  0.33099  0.46304  Biso   1.000  H
  H10      1.0000 0.80640  0.67079  0.53691  Biso   1.000  H
  H11      1.0000 0.46623  0.70807  0.93346  Biso   1.000  H
  H12      1.0000 0.53469  0.29185  0.06659  Biso   1.000  H
  H13      1.0000 0.75401  0.71337  0.96466  Biso   1.000  H
  H14      1.0000 0.24693  0.28668  0.03539  Biso   1.000  H
  H15      1.0000 0.85743  0.43575  0.96756  Biso   1.000  H
  H16      1.0000 0.14359  0.56431  0.03253  Biso   1.000  H
  H17      1.0000 0.75878  0.52333  0.88010  Biso   1.000  H
  H18      1.0000 0.24247  0.47665  0.11995  Biso   1.000  H
  H19      1.0000 0.26809  0.91624  0.32949  Biso   1.000  H
  H20      1.0000 0.73060  0.08458  0.67059  Biso   1.000  H
  H21      1.0000 0.32649  0.00886  0.39780  Biso   1.000  H
  H22      1.0000 0.67336  0.99127  0.60238  Biso   1.000  H
  H23      1.0000 0.47874  0.96087  0.20817  Biso   1.000  H
  H24      1.0000 0.52026  0.03943  0.79201  Biso   1.000  H
  H25      1.0000 0.80632  0.07544  0.11378  Biso   1.000  H
  H26      1.0000 0.19281  0.92445  0.88634  Biso   1.000  H
  H27      1.0000 0.11143  0.21527  0.15321  Biso   1.000  H
  H28      1.0000 0.88812  0.78451  0.84680  Biso   1.000  H
  H29      1.0000 0.08402  0.23827  0.28403  Biso   1.000  H
  H30      1.0000 0.91622  0.76120  0.71602  Biso   1.000  H
  H31      1.0000 0.83968  0.00284  0.43291  Biso   1.000  H
  H32      1.0000 0.16303  0.99634  0.56692  Biso   1.000  H
  H33      1.0000 0.57543  0.13571  0.42787  Biso   1.000  H
  H34      1.0000 0.42598  0.86245  0.57264  Biso   1.000  H
  C1       1.0000 0.08869  0.69867  0.25727  Biso   1.000  C
  C2       1.0000 0.91129  0.30129  0.74238  Biso   1.000  C
  C3       1.0000 0.21097  0.71633  0.18556  Biso   1.000  C
  C4       1.0000 0.78988  0.28398  0.81420  Biso   1.000  C
  C5       1.0000 0.44211  0.63749  0.17399  Biso   1.000  C
  C6       1.0000 0.55871  0.36272  0.82593  Biso   1.000  C
  C7       1.0000 0.53970  0.54280  0.23542  Biso   1.000  C
  C8       1.0000 0.46042  0.45717  0.76457  Biso   1.000  C
  C9       1.0000 0.40350  0.52861  0.30538  Biso   1.000  C
  C10      1.0000 0.59579  0.47115  0.69450  Biso   1.000  C
  C11      1.0000 0.58432  0.66261  0.09771  Biso   1.000  C
  C12      1.0000 0.41673  0.33754  0.90228  Biso   1.000  C
  C13      1.0000 0.60513  0.64203  0.96785  Biso   1.000  C
  C14      1.0000 0.39585  0.35795  0.03221  Biso   1.000  C
  C15      1.0000 0.69914  0.49503  0.93998  Biso   1.000  C
  C16      1.0000 0.30192  0.50498  0.06007  Biso   1.000  C
  C17      1.0000 0.53414  0.79235  0.39681  Biso   1.000  C
  C18      1.0000 0.46419  0.20743  0.60312  Biso   1.000  C
  C19      1.0000 0.41679  0.94392  0.35580  Biso   1.000  C
  C20      1.0000 0.58238  0.05637  0.64426  Biso   1.000  C
  C21      1.0000 0.59694  0.03241  0.29930  Biso   1.000  C
  C22      1.0000 0.40249  0.96768  0.70082  Biso   1.000  C
  C23      1.0000 0.61040  0.02394  0.22436  Biso   1.000  C
  C24      1.0000 0.38878  0.97627  0.77577  Biso   1.000  C
  C25      1.0000 0.79302  0.08949  0.17116  Biso   1.000  C
  C26      1.0000 0.20620  0.91051  0.82894  Biso   1.000  C
  C27      1.0000 0.96288  0.16700  0.19315  Biso   1.000  C
  C28      1.0000 0.03661  0.83287  0.80690  Biso   1.000  C
  C29      1.0000 0.94830  0.17878  0.26742  Biso   1.000  C
  C30      1.0000 0.05153  0.82088  0.73266  Biso   1.000  C
  C31      1.0000 0.76793  0.11173  0.32153  Biso   1.000  C
  C32      1.0000 0.23200  0.88797  0.67860  Biso   1.000  C
  C33      1.0000 0.76518  0.11507  0.40278  Biso   1.000  C
  C34      1.0000 0.23607  0.88406  0.59738  Biso   1.000  C
  C35      1.0000 0.90628  0.24044  0.41491  Biso   1.000  C
  C36      1.0000 0.09358  0.75929  0.58541  Biso   1.000  C
  N1       1.0000 0.18212  0.60622  0.31643  Biso   1.000  N
  N2       1.0000 0.81700  0.39338  0.68328  Biso   1.000  N
  N3       1.0000 0.49566  0.60739  0.04519  Biso   1.000  N
  N4       1.0000 0.50543  0.39258  0.95484  Biso   1.000  N
  O1       1.0000 0.39337  0.70670  0.44359  Biso   1.000  O
  O2       1.0000 0.60574  0.29360  0.55672  Biso   1.000  O
  O3       1.0000 0.76292  0.76243  0.37998  Biso   1.000  O
  O4       1.0000 0.23522  0.23683  0.61907  Biso   1.000  O
  O5       1.0000 0.81051  0.37804  0.39822  Biso   1.000  O
  O6       1.0000 0.18754  0.62134  0.60232  Biso   1.000  O
  O7       1.0000 0.11200  0.20019  0.44014  Biso   1.000  O
  O8       1.0000 0.88811  0.80065  0.56013  Biso   1.000  O
  O9       1.0000 0.76694  0.73596  0.08424  Biso   1.000  O
  O10      1.0000 0.23409  0.26426  0.91568  Biso   1.000  O
  O11      1.0000 0.20574  0.43539  0.47867  Biso   1.000  O
  O12      1.0000 0.79454  0.56721  0.52067  Biso   1.000  O
