data_image0
_cell_length_a       8.55075
_cell_length_b       12.1094
_cell_length_c       12.7575
_cell_angle_alpha    75.4685
_cell_angle_beta     78.1195
_cell_angle_gamma    83.8287

_symmetry_space_group_name_H-M    "P 1"
_symmetry_int_tables_number       1

loop_
  _symmetry_equiv_pos_as_xyz
  'x, y, z'

loop_
  _atom_site_label
  _atom_site_occupancy
  _atom_site_fract_x
  _atom_site_fract_y
  _atom_site_fract_z
  _atom_site_thermal_displace_type
  _atom_site_B_iso_or_equiv
  _atom_site_type_symbol
  Na1      1.0000 0.30885  0.53983  0.94974  Biso   1.000  Na
  Na2      1.0000 0.69115  0.46017  0.05026  Biso   1.000  Na
  La1      1.0000 0.32522  0.28549  0.20785  Biso   1.000  La
  La2      1.0000 0.67477  0.71451  0.79215  Biso   1.000  La
  H1       1.0000 0.80211  0.34135  0.30297  Biso   1.000  H
  H2       1.0000 0.19790  0.65865  0.69703  Biso   1.000  H
  H3       1.0000 0.86299  0.19184  0.32997  Biso   1.000  H
  H4       1.0000 0.13701  0.80816  0.67002  Biso   1.000  H
  H5       1.0000 0.44547  0.39289  0.46683  Biso   1.000  H
  H6       1.0000 0.55454  0.60711  0.53317  Biso   1.000  H
  H7       1.0000 0.34988  0.53029  0.41900  Biso   1.000  H
  H8       1.0000 0.65012  0.46971  0.58100  Biso   1.000  H
  H9       1.0000 0.22190  0.42020  0.58699  Biso   1.000  H
  H10      1.0000 0.77810  0.57981  0.41301  Biso   1.000  H
  H11      1.0000 0.97809  0.36777  0.72548  Biso   1.000  H
  H12      1.0000 0.02191  0.63223  0.27453  Biso   1.000  H
  H13      1.0000 0.75619  0.28458  0.67977  Biso   1.000  H
  H14      1.0000 0.24381  0.71541  0.32023  Biso   1.000  H
  H15      1.0000 0.77909  0.25161  0.49091  Biso   1.000  H
  H16      1.0000 0.22091  0.74838  0.50910  Biso   1.000  H
  H17      1.0000 0.37401  0.22250  0.87671  Biso   1.000  H
  H18      1.0000 0.62598  0.77750  0.12329  Biso   1.000  H
  H19      1.0000 0.54346  0.13374  0.91670  Biso   1.000  H
  H20      1.0000 0.45653  0.86626  0.08329  Biso   1.000  H
  H21      1.0000 0.21443  0.92624  0.36600  Biso   1.000  H
  H22      1.0000 0.78558  0.07377  0.63400  Biso   1.000  H
  H23      1.0000 0.03815  0.01584  0.39211  Biso   1.000  H
  H24      1.0000 0.96185  0.98416  0.60789  Biso   1.000  H
  H25      1.0000 0.02086  0.90355  0.27301  Biso   1.000  H
  H26      1.0000 0.97914  0.09645  0.72699  Biso   1.000  H
  H27      1.0000 0.00992  0.80770  0.12429  Biso   1.000  H
  H28      1.0000 0.99008  0.19230  0.87571  Biso   1.000  H
  H29      1.0000 0.16384  0.87851  0.93628  Biso   1.000  H
  H30      1.0000 0.83616  0.12150  0.06372  Biso   1.000  H
  H31      1.0000 0.33099  0.04291  0.89504  Biso   1.000  H
  H32      1.0000 0.66900  0.95710  0.10496  Biso   1.000  H
  H33      1.0000 0.08977  0.51393  0.13965  Biso   1.000  H
  H34      1.0000 0.91024  0.48607  0.86035  Biso   1.000  H
  H35      1.0000 0.25755  0.56038  0.14948  Biso   1.000  H
  H36      1.0000 0.74246  0.43962  0.85052  Biso   1.000  H
  H37      1.0000 0.58717  0.12271  0.29399  Biso   1.000  H
  H38      1.0000 0.41283  0.87730  0.70600  Biso   1.000  H
  H39      1.0000 0.68294  0.20633  0.18605  Biso   1.000  H
  H40      1.0000 0.31706  0.79367  0.81394  Biso   1.000  H
  H41      1.0000 0.20522  0.43514  0.82266  Biso   1.000  H
  H42      1.0000 0.79478  0.56486  0.17734  Biso   1.000  H
  H43      1.0000 0.11343  0.37523  0.94650  Biso   1.000  H
  H44      1.0000 0.88657  0.62477  0.05350  Biso   1.000  H
  C1       1.0000 0.01249  0.31906  0.43286  Biso   1.000  C
  C2       1.0000 0.98751  0.68093  0.56715  Biso   1.000  C
  C3       1.0000 0.90160  0.27852  0.28737  Biso   1.000  C
  C4       1.0000 0.09841  0.72147  0.71263  Biso   1.000  C
  C5       1.0000 0.94480  0.28835  0.16318  Biso   1.000  C
  C6       1.0000 0.05520  0.71165  0.83682  Biso   1.000  C
  C7       1.0000 0.13823  0.36711  0.45927  Biso   1.000  C
  C8       1.0000 0.86177  0.63289  0.54073  Biso   1.000  C
  C9       1.0000 0.39545  0.44889  0.39745  Biso   1.000  C
  C10      1.0000 0.60456  0.55111  0.60255  Biso   1.000  C
  C11      1.0000 0.52734  0.47016  0.29549  Biso   1.000  C
  C12      1.0000 0.47267  0.52984  0.70451  Biso   1.000  C
  C13      1.0000 0.12573  0.38391  0.56472  Biso   1.000  C
  C14      1.0000 0.87427  0.61609  0.43528  Biso   1.000  C
  C15      1.0000 0.98734  0.35403  0.64326  Biso   1.000  C
  C16      1.0000 0.01267  0.64596  0.35674  Biso   1.000  C
  C17      1.0000 0.86248  0.30772  0.61712  Biso   1.000  C
  C18      1.0000 0.13753  0.69227  0.38289  Biso   1.000  C
  C19      1.0000 0.87510  0.28994  0.51125  Biso   1.000  C
  C20      1.0000 0.12490  0.71006  0.48876  Biso   1.000  C
  C21      1.0000 0.27140  0.06762  0.06138  Biso   1.000  C
  C22      1.0000 0.72859  0.93239  0.93862  Biso   1.000  C
  C23      1.0000 0.45283  0.19985  0.93845  Biso   1.000  C
  C24      1.0000 0.54716  0.80015  0.06155  Biso   1.000  C
  C25      1.0000 0.53572  0.30577  0.93401  Biso   1.000  C
  C26      1.0000 0.46428  0.69423  0.06598  Biso   1.000  C
  C27      1.0000 0.18561  0.02617  0.16888  Biso   1.000  C
  C28      1.0000 0.81438  0.97384  0.83111  Biso   1.000  C
  C29      1.0000 0.16876  0.01517  0.36233  Biso   1.000  C
  C30      1.0000 0.83124  0.98484  0.63767  Biso   1.000  C
  C31      1.0000 0.24913  0.06424  0.43600  Biso   1.000  C
  C32      1.0000 0.75086  0.93575  0.56401  Biso   1.000  C
  C33      1.0000 0.08983  0.93409  0.19073  Biso   1.000  C
  C34      1.0000 0.91016  0.06591  0.80927  Biso   1.000  C
  C35      1.0000 0.08324  0.88066  0.10665  Biso   1.000  C
  C36      1.0000 0.91676  0.11934  0.89335  Biso   1.000  C
  C37      1.0000 0.16944  0.92017  0.00131  Biso   1.000  C
  C38      1.0000 0.83055  0.07983  0.99869  Biso   1.000  C
  C39      1.0000 0.26338  0.01399  0.97803  Biso   1.000  C
  C40      1.0000 0.73660  0.98601  0.02197  Biso   1.000  C
  O1       1.0000 0.03704  0.30294  0.32658  Biso   1.000  O
  O2       1.0000 0.96296  0.69706  0.67343  Biso   1.000  O
  O3       1.0000 0.08882  0.30074  0.11372  Biso   1.000  O
  O4       1.0000 0.91118  0.69927  0.88628  Biso   1.000  O
  O5       1.0000 0.82932  0.28442  0.11650  Biso   1.000  O
  O6       1.0000 0.17068  0.71558  0.88350  Biso   1.000  O
  O7       1.0000 0.26797  0.39511  0.37523  Biso   1.000  O
  O8       1.0000 0.73203  0.60489  0.62477  Biso   1.000  O
  O9       1.0000 0.52085  0.41892  0.21996  Biso   1.000  O
  O10      1.0000 0.47915  0.58107  0.78004  Biso   1.000  O
  O11      1.0000 0.63589  0.53321  0.29385  Biso   1.000  O
  O12      1.0000 0.36412  0.46678  0.70615  Biso   1.000  O
  O13      1.0000 0.36211  0.15986  0.04685  Biso   1.000  O
  O14      1.0000 0.63788  0.84014  0.95315  Biso   1.000  O
  O15      1.0000 0.48828  0.35766  0.01283  Biso   1.000  O
  O16      1.0000 0.51172  0.64234  0.98717  Biso   1.000  O
  O17      1.0000 0.64224  0.33663  0.85100  Biso   1.000  O
  O18      1.0000 0.35774  0.66337  0.14901  Biso   1.000  O
  O19      1.0000 0.20512  0.08022  0.24871  Biso   1.000  O
  O20      1.0000 0.79488  0.91978  0.75129  Biso   1.000  O
  O21      1.0000 0.32614  0.15504  0.38910  Biso   1.000  O
  O22      1.0000 0.67387  0.84496  0.61089  Biso   1.000  O
  O23      1.0000 0.23249  0.01169  0.53476  Biso   1.000  O
  O24      1.0000 0.76751  0.98832  0.46522  Biso   1.000  O
  O25      1.0000 0.20552  0.49382  0.13798  Biso   1.000  O
  O26      1.0000 0.79448  0.50619  0.86202  Biso   1.000  O
  O27      1.0000 0.58437  0.16154  0.21744  Biso   1.000  O
  O28      1.0000 0.41563  0.83846  0.78255  Biso   1.000  O
  O29      1.0000 0.11696  0.44383  0.88545  Biso   1.000  O
  O30      1.0000 0.88304  0.55617  0.11454  Biso   1.000  O
