data_image0
_cell_length_a       8.1255
_cell_length_b       10.0692
_cell_length_c       11.0318
_cell_angle_alpha    117.06
_cell_angle_beta     95.7554
_cell_angle_gamma    94.9475

_symmetry_space_group_name_H-M    "P 1"
_symmetry_int_tables_number       1

loop_
  _symmetry_equiv_pos_as_xyz
  'x, y, z'

loop_
  _atom_site_label
  _atom_site_occupancy
  _atom_site_fract_x
  _atom_site_fract_y
  _atom_site_fract_z
  _atom_site_thermal_displace_type
  _atom_site_B_iso_or_equiv
  _atom_site_type_symbol
  Cu1      1.0000 0.38221  0.38670  0.44408  Biso   1.000  Cu
  Cu2      1.0000 0.61779  0.61330  0.55592  Biso   1.000  Cu
  H1       1.0000 0.41991  0.08940  0.42134  Biso   1.000  H
  H2       1.0000 0.58009  0.91060  0.57866  Biso   1.000  H
  H3       1.0000 0.29076  0.91622  0.50323  Biso   1.000  H
  H4       1.0000 0.70925  0.08377  0.49677  Biso   1.000  H
  H5       1.0000 0.04512  0.28364  0.76549  Biso   1.000  H
  H6       1.0000 0.95489  0.71636  0.23452  Biso   1.000  H
  H7       1.0000 0.18101  0.43844  0.66885  Biso   1.000  H
  H8       1.0000 0.81900  0.56156  0.33116  Biso   1.000  H
  H9       1.0000 0.03871  0.38605  0.33344  Biso   1.000  H
  H10      1.0000 0.96127  0.61396  0.66656  Biso   1.000  H
  H11      1.0000 0.85265  0.26175  0.10813  Biso   1.000  H
  H12      1.0000 0.14734  0.73825  0.89187  Biso   1.000  H
  H13      1.0000 0.28674  0.10239  0.91797  Biso   1.000  H
  H14      1.0000 0.71326  0.89760  0.08202  Biso   1.000  H
  H15      1.0000 0.45413  0.22967  0.15510  Biso   1.000  H
  H16      1.0000 0.54586  0.77033  0.84490  Biso   1.000  H
  C1       1.0000 0.33526  0.12733  0.49732  Biso   1.000  C
  C2       1.0000 0.66475  0.87267  0.50268  Biso   1.000  C
  C3       1.0000 0.26437  0.03186  0.54357  Biso   1.000  C
  C4       1.0000 0.73564  0.96813  0.45643  Biso   1.000  C
  C5       1.0000 0.15667  0.08680  0.64188  Biso   1.000  C
  C6       1.0000 0.84334  0.91320  0.35813  Biso   1.000  C
  C7       1.0000 0.12752  0.23583  0.68926  Biso   1.000  C
  C8       1.0000 0.87250  0.76417  0.31074  Biso   1.000  C
  C9       1.0000 0.20265  0.32225  0.63570  Biso   1.000  C
  C10      1.0000 0.79736  0.67775  0.36430  Biso   1.000  C
  C11      1.0000 0.08943  0.32213  0.23892  Biso   1.000  C
  C12      1.0000 0.91055  0.67787  0.76108  Biso   1.000  C
  C13      1.0000 0.98588  0.25343  0.11200  Biso   1.000  C
  C14      1.0000 0.01411  0.74657  0.88800  Biso   1.000  C
  C15      1.0000 0.05558  0.17195  0.99281  Biso   1.000  C
  C16      1.0000 0.94442  0.82805  0.00720  Biso   1.000  C
  C17      1.0000 0.22721  0.16484  0.00752  Biso   1.000  C
  C18      1.0000 0.77278  0.83516  0.99248  Biso   1.000  C
  C19      1.0000 0.32039  0.23507  0.13888  Biso   1.000  C
  C20      1.0000 0.67959  0.76493  0.86112  Biso   1.000  C
  S1       1.0000 0.06439  0.96029  0.69518  Biso   1.000  S
  S2       1.0000 0.93562  0.03971  0.30482  Biso   1.000  S
  S3       1.0000 0.91882  0.08268  0.83361  Biso   1.000  S
  S4       1.0000 0.08118  0.91732  0.16639  Biso   1.000  S
  I1       1.0000 0.30522  0.66208  0.58391  Biso   1.000  I
  I2       1.0000 0.69477  0.33792  0.41609  Biso   1.000  I
  N1       1.0000 0.30504  0.27053  0.54053  Biso   1.000  N
  N2       1.0000 0.69496  0.72946  0.45947  Biso   1.000  N
  N3       1.0000 0.25436  0.31249  0.25417  Biso   1.000  N
  N4       1.0000 0.74562  0.68751  0.74582  Biso   1.000  N
