data_image0
_cell_length_a       8.89714
_cell_length_b       8.91443
_cell_length_c       9.81932
_cell_angle_alpha    93.1505
_cell_angle_beta     98.884
_cell_angle_gamma    104.258

_symmetry_space_group_name_H-M    "P 1"
_symmetry_int_tables_number       1

loop_
  _symmetry_equiv_pos_as_xyz
  'x, y, z'

loop_
  _atom_site_label
  _atom_site_occupancy
  _atom_site_fract_x
  _atom_site_fract_y
  _atom_site_fract_z
  _atom_site_thermal_displace_type
  _atom_site_B_iso_or_equiv
  _atom_site_type_symbol
  Cu1      1.0000 0.44443  0.03116  0.88092  Biso   1.000  Cu
  Cu2      1.0000 0.55557  0.96884  0.11909  Biso   1.000  Cu
  H1       1.0000 0.24751  0.70901  0.79795  Biso   1.000  H
  H2       1.0000 0.75248  0.29099  0.20206  Biso   1.000  H
  H3       1.0000 0.98428  0.58055  0.65525  Biso   1.000  H
  H4       1.0000 0.01571  0.41945  0.34476  Biso   1.000  H
  H5       1.0000 0.90323  0.03867  0.63015  Biso   1.000  H
  H6       1.0000 0.09678  0.96133  0.36983  Biso   1.000  H
  H7       1.0000 0.16764  0.14570  0.77619  Biso   1.000  H
  H8       1.0000 0.83236  0.85430  0.22379  Biso   1.000  H
  H9       1.0000 0.59817  0.00665  0.63924  Biso   1.000  H
  H10      1.0000 0.40183  0.99336  0.36076  Biso   1.000  H
  H11      1.0000 0.69281  0.17941  0.46136  Biso   1.000  H
  H12      1.0000 0.30718  0.82059  0.53864  Biso   1.000  H
  H13      1.0000 0.64577  0.56613  0.72493  Biso   1.000  H
  H14      1.0000 0.35423  0.43386  0.27507  Biso   1.000  H
  H15      1.0000 0.54806  0.37597  0.88704  Biso   1.000  H
  H16      1.0000 0.45196  0.62403  0.11296  Biso   1.000  H
  C1       1.0000 0.16645  0.77706  0.75838  Biso   1.000  C
  C2       1.0000 0.83355  0.22294  0.24163  Biso   1.000  C
  C3       1.0000 0.02007  0.70629  0.67913  Biso   1.000  C
  C4       1.0000 0.97992  0.29371  0.32088  Biso   1.000  C
  C5       1.0000 0.92309  0.79959  0.62797  Biso   1.000  C
  C6       1.0000 0.07690  0.20041  0.37203  Biso   1.000  C
  C7       1.0000 0.97515  0.96067  0.66482  Biso   1.000  C
  C8       1.0000 0.02485  0.03933  0.33516  Biso   1.000  C
  C9       1.0000 0.12300  0.02112  0.74551  Biso   1.000  C
  C10      1.0000 0.87701  0.97888  0.25449  Biso   1.000  C
  C11      1.0000 0.60922  0.13163  0.65265  Biso   1.000  C
  C12      1.0000 0.39078  0.86837  0.34735  Biso   1.000  C
  C13      1.0000 0.66390  0.22849  0.55496  Biso   1.000  C
  C14      1.0000 0.33609  0.77151  0.44505  Biso   1.000  C
  C15      1.0000 0.67640  0.38843  0.57818  Biso   1.000  C
  C16      1.0000 0.32360  0.61156  0.42183  Biso   1.000  C
  C17      1.0000 0.63787  0.44321  0.70079  Biso   1.000  C
  C18      1.0000 0.36214  0.55680  0.29921  Biso   1.000  C
  C19      1.0000 0.58243  0.33744  0.79161  Biso   1.000  C
  C20      1.0000 0.41758  0.66256  0.20840  Biso   1.000  C
  S1       1.0000 0.73732  0.72673  0.52063  Biso   1.000  S
  S2       1.0000 0.26268  0.27327  0.47937  Biso   1.000  S
  S3       1.0000 0.73646  0.50824  0.44818  Biso   1.000  S
  S4       1.0000 0.26353  0.49175  0.55183  Biso   1.000  S
  I1       1.0000 0.59325  0.80671  0.89672  Biso   1.000  I
  I2       1.0000 0.40678  0.19333  0.10329  Biso   1.000  I
  N1       1.0000 0.22045  0.93233  0.78950  Biso   1.000  N
  N2       1.0000 0.77955  0.06767  0.21050  Biso   1.000  N
  N3       1.0000 0.56524  0.18292  0.76852  Biso   1.000  N
  N4       1.0000 0.43476  0.81708  0.23148  Biso   1.000  N
