data_image0
_cell_length_a       8.63111
_cell_length_b       12.9857
_cell_length_c       27.8259
_cell_angle_alpha    90.0213
_cell_angle_beta     90.015
_cell_angle_gamma    90.0012

_symmetry_space_group_name_H-M    "P 1"
_symmetry_int_tables_number       1

loop_
  _symmetry_equiv_pos_as_xyz
  'x, y, z'

loop_
  _atom_site_label
  _atom_site_occupancy
  _atom_site_fract_x
  _atom_site_fract_y
  _atom_site_fract_z
  _atom_site_thermal_displace_type
  _atom_site_B_iso_or_equiv
  _atom_site_type_symbol
  Cu1      1.0000 0.05209  0.04685  0.53819  Biso   1.000  Cu
  Cu2      1.0000 0.05150  0.45346  0.96214  Biso   1.000  Cu
  Cu3      1.0000 0.44852  0.95349  0.03786  Biso   1.000  Cu
  Cu4      1.0000 0.44839  0.54653  0.46219  Biso   1.000  Cu
  Cu5      1.0000 0.94792  0.95318  0.46183  Biso   1.000  Cu
  Cu6      1.0000 0.94849  0.54655  0.03786  Biso   1.000  Cu
  Cu7      1.0000 0.55149  0.04650  0.96214  Biso   1.000  Cu
  Cu8      1.0000 0.55161  0.45343  0.53784  Biso   1.000  Cu
  H1       1.0000 0.87591  0.26615  0.40131  Biso   1.000  H
  H2       1.0000 0.87554  0.23390  0.09870  Biso   1.000  H
  H3       1.0000 0.62457  0.73376  0.90132  Biso   1.000  H
  H4       1.0000 0.62492  0.76622  0.59868  Biso   1.000  H
  H5       1.0000 0.12410  0.73383  0.59869  Biso   1.000  H
  H6       1.0000 0.12446  0.76611  0.90130  Biso   1.000  H
  H7       1.0000 0.37542  0.26625  0.09868  Biso   1.000  H
  H8       1.0000 0.37504  0.23378  0.40131  Biso   1.000  H
  H9       1.0000 0.77498  0.29370  0.45525  Biso   1.000  H
  H10      1.0000 0.77511  0.20661  0.04462  Biso   1.000  H
  H11      1.0000 0.72491  0.70656  0.95542  Biso   1.000  H
  H12      1.0000 0.72476  0.79352  0.54456  Biso   1.000  H
  H13      1.0000 0.22502  0.70630  0.54475  Biso   1.000  H
  H14      1.0000 0.22490  0.79339  0.95539  Biso   1.000  H
  H15      1.0000 0.27508  0.29344  0.04458  Biso   1.000  H
  H16      1.0000 0.27522  0.20647  0.45545  Biso   1.000  H
  H17      1.0000 0.10825  0.36215  0.43247  Biso   1.000  H
  H18      1.0000 0.10830  0.13810  0.06750  Biso   1.000  H
  H19      1.0000 0.39173  0.63804  0.93250  Biso   1.000  H
  H20      1.0000 0.39182  0.86184  0.56764  Biso   1.000  H
  H21      1.0000 0.89170  0.63785  0.56754  Biso   1.000  H
  H22      1.0000 0.89170  0.86190  0.93251  Biso   1.000  H
  H23      1.0000 0.60827  0.36197  0.06749  Biso   1.000  H
  H24      1.0000 0.60818  0.13817  0.43235  Biso   1.000  H
  H25      1.0000 0.01872  0.37361  0.48914  Biso   1.000  H
  H26      1.0000 0.01865  0.12658  0.01082  Biso   1.000  H
  H27      1.0000 0.48139  0.62656  0.98919  Biso   1.000  H
  H28      1.0000 0.48100  0.87341  0.51092  Biso   1.000  H
  H29      1.0000 0.98129  0.62637  0.51087  Biso   1.000  H
  H30      1.0000 0.98137  0.87342  0.98919  Biso   1.000  H
  H31      1.0000 0.51860  0.37345  0.01081  Biso   1.000  H
  H32      1.0000 0.51904  0.12658  0.48908  Biso   1.000  H
  H33      1.0000 0.00045  0.53648  0.44348  Biso   1.000  H
  H34      1.0000 0.00066  0.96373  0.05647  Biso   1.000  H
  H35      1.0000 0.49941  0.46367  0.94350  Biso   1.000  H
  H36      1.0000 0.49957  0.03635  0.55621  Biso   1.000  H
  H37      1.0000 0.99955  0.46352  0.55653  Biso   1.000  H
  H38      1.0000 0.99934  0.03627  0.94354  Biso   1.000  H
  H39      1.0000 0.50058  0.53633  0.05650  Biso   1.000  H
  H40      1.0000 0.50043  0.96365  0.44378  Biso   1.000  H
  H41      1.0000 0.90439  0.47494  0.39522  Biso   1.000  H
  H42      1.0000 0.90477  0.02513  0.10474  Biso   1.000  H
  H43      1.0000 0.59534  0.52508  0.89525  Biso   1.000  H
  H44      1.0000 0.59428  0.97523  0.60482  Biso   1.000  H
  H45      1.0000 0.09560  0.52507  0.60476  Biso   1.000  H
  H46      1.0000 0.09522  0.97487  0.89527  Biso   1.000  H
  H47      1.0000 0.40466  0.47493  0.10474  Biso   1.000  H
  H48      1.0000 0.40568  0.02478  0.39519  Biso   1.000  H
  H49      1.0000 0.20536  0.25409  0.56569  Biso   1.000  H
  H50      1.0000 0.20542  0.24570  0.93407  Biso   1.000  H
  H51      1.0000 0.29467  0.74570  0.06588  Biso   1.000  H
  H52      1.0000 0.29458  0.75423  0.43417  Biso   1.000  H
  H53      1.0000 0.79463  0.74591  0.43431  Biso   1.000  H
  H54      1.0000 0.79456  0.75430  0.06593  Biso   1.000  H
  H55      1.0000 0.70533  0.25429  0.93411  Biso   1.000  H
  H56      1.0000 0.70543  0.24576  0.56583  Biso   1.000  H
  H57      1.0000 0.39555  0.31992  0.62502  Biso   1.000  H
  H58      1.0000 0.39563  0.17993  0.87477  Biso   1.000  H
  H59      1.0000 0.10445  0.68001  0.12518  Biso   1.000  H
  H60      1.0000 0.10443  0.82000  0.37485  Biso   1.000  H
  H61      1.0000 0.60445  0.68009  0.37498  Biso   1.000  H
  H62      1.0000 0.60436  0.82006  0.12523  Biso   1.000  H
  H63      1.0000 0.89555  0.31998  0.87482  Biso   1.000  H
  H64      1.0000 0.89557  0.17999  0.62515  Biso   1.000  H
  H65      1.0000 0.35993  0.02691  0.69826  Biso   1.000  H
  H66      1.0000 0.36040  0.47297  0.80163  Biso   1.000  H
  H67      1.0000 0.13949  0.97315  0.19835  Biso   1.000  H
  H68      1.0000 0.13950  0.52689  0.30163  Biso   1.000  H
  H69      1.0000 0.64007  0.97309  0.30173  Biso   1.000  H
  H70      1.0000 0.63961  0.52703  0.19837  Biso   1.000  H
  H71      1.0000 0.86052  0.02684  0.80165  Biso   1.000  H
  H72      1.0000 0.86053  0.47312  0.69837  Biso   1.000  H
  H73      1.0000 0.16867  0.97369  0.63510  Biso   1.000  H
  H74      1.0000 0.16909  0.52616  0.86474  Biso   1.000  H
  H75      1.0000 0.33082  0.02626  0.13525  Biso   1.000  H
  H76      1.0000 0.33084  0.47373  0.36476  Biso   1.000  H
  H77      1.0000 0.83133  0.02632  0.36489  Biso   1.000  H
  H78      1.0000 0.83092  0.47385  0.13526  Biso   1.000  H
  H79      1.0000 0.66918  0.97374  0.86475  Biso   1.000  H
  H80      1.0000 0.66919  0.52627  0.63524  Biso   1.000  H
  H81      1.0000 0.57302  0.27924  0.69346  Biso   1.000  H
  H82      1.0000 0.57323  0.22060  0.80635  Biso   1.000  H
  H83      1.0000 0.92678  0.72076  0.19357  Biso   1.000  H
  H84      1.0000 0.92672  0.77931  0.30642  Biso   1.000  H
  H85      1.0000 0.42698  0.72076  0.30653  Biso   1.000  H
  H86      1.0000 0.42675  0.77939  0.19365  Biso   1.000  H
  H87      1.0000 0.07323  0.27923  0.80643  Biso   1.000  H
  H88      1.0000 0.07329  0.22068  0.69358  Biso   1.000  H
  H89      1.0000 0.57929  0.15255  0.71717  Biso   1.000  H
  H90      1.0000 0.57931  0.34733  0.78265  Biso   1.000  H
  H91      1.0000 0.92065  0.84750  0.21732  Biso   1.000  H
  H92      1.0000 0.92066  0.65257  0.28264  Biso   1.000  H
  H93      1.0000 0.42072  0.84744  0.28282  Biso   1.000  H
  H94      1.0000 0.42069  0.65265  0.21735  Biso   1.000  H
  H95      1.0000 0.07935  0.15249  0.78268  Biso   1.000  H
  H96      1.0000 0.07936  0.34742  0.71736  Biso   1.000  H
  H97      1.0000 0.32820  0.31332  0.73881  Biso   1.000  H
  H98      1.0000 0.32821  0.18657  0.76104  Biso   1.000  H
  H99      1.0000 0.17178  0.68671  0.23888  Biso   1.000  H
  H100     1.0000 0.17175  0.81339  0.26116  Biso   1.000  H
  H101     1.0000 0.67180  0.68668  0.26118  Biso   1.000  H
  H102     1.0000 0.67178  0.81343  0.23896  Biso   1.000  H
  H103     1.0000 0.82823  0.31329  0.76112  Biso   1.000  H
  H104     1.0000 0.82825  0.18661  0.73884  Biso   1.000  H
  C1       1.0000 0.94020  0.17738  0.46288  Biso   1.000  C
  C2       1.0000 0.94055  0.32273  0.03736  Biso   1.000  C
  C3       1.0000 0.55945  0.82269  0.96264  Biso   1.000  C
  C4       1.0000 0.55940  0.67736  0.53738  Biso   1.000  C
  C5       1.0000 0.05980  0.82260  0.53711  Biso   1.000  C
  C6       1.0000 0.05946  0.67728  0.96264  Biso   1.000  C
  C7       1.0000 0.44055  0.17731  0.03736  Biso   1.000  C
  C8       1.0000 0.44057  0.32265  0.46262  Biso   1.000  C
  C9       1.0000 0.89083  0.27872  0.44005  Biso   1.000  C
  C10      1.0000 0.89087  0.22150  0.05994  Biso   1.000  C
  C11      1.0000 0.60918  0.72144  0.94008  Biso   1.000  C
  C12      1.0000 0.60918  0.77859  0.55994  Biso   1.000  C
  C13      1.0000 0.10916  0.72128  0.55996  Biso   1.000  C
  C14      1.0000 0.10914  0.77850  0.94006  Biso   1.000  C
  C15      1.0000 0.39081  0.27857  0.05992  Biso   1.000  C
  C16      1.0000 0.39078  0.22141  0.44006  Biso   1.000  C
  C17      1.0000 0.99563  0.37085  0.45046  Biso   1.000  C
  C18      1.0000 0.99564  0.12937  0.04951  Biso   1.000  C
  C19      1.0000 0.50440  0.62931  0.95050  Biso   1.000  C
  C20      1.0000 0.50435  0.87068  0.54960  Biso   1.000  C
  C21      1.0000 0.00435  0.62916  0.54955  Biso   1.000  C
  C22      1.0000 0.00438  0.87063  0.95049  Biso   1.000  C
  C23      1.0000 0.49559  0.37069  0.04950  Biso   1.000  C
  C24      1.0000 0.49564  0.12934  0.45040  Biso   1.000  C
  C25      1.0000 0.92213  0.47241  0.43430  Biso   1.000  C
  C26      1.0000 0.92233  0.02777  0.06565  Biso   1.000  C
  C27      1.0000 0.57773  0.52771  0.93434  Biso   1.000  C
  C28      1.0000 0.57748  0.97232  0.56570  Biso   1.000  C
  C29      1.0000 0.07786  0.52761  0.56569  Biso   1.000  C
  C30      1.0000 0.07767  0.97224  0.93436  Biso   1.000  C
  C31      1.0000 0.42226  0.47229  0.06565  Biso   1.000  C
  C32      1.0000 0.42253  0.02768  0.43430  Biso   1.000  C
  C33      1.0000 0.76653  0.49228  0.45845  Biso   1.000  C
  C34      1.0000 0.76665  0.00783  0.04154  Biso   1.000  C
  C35      1.0000 0.73340  0.50780  0.95846  Biso   1.000  C
  C36      1.0000 0.73398  0.99204  0.54178  Biso   1.000  C
  C37      1.0000 0.23346  0.50773  0.54154  Biso   1.000  C
  C38      1.0000 0.23335  0.99217  0.95846  Biso   1.000  C
  C39      1.0000 0.26660  0.49220  0.04153  Biso   1.000  C
  C40      1.0000 0.26603  0.00797  0.45822  Biso   1.000  C
  C41      1.0000 0.24183  0.20627  0.59586  Biso   1.000  C
  C42      1.0000 0.24192  0.29356  0.90392  Biso   1.000  C
  C43      1.0000 0.25818  0.79359  0.09604  Biso   1.000  C
  C44      1.0000 0.25807  0.70637  0.40400  Biso   1.000  C
  C45      1.0000 0.75816  0.79374  0.40414  Biso   1.000  C
  C46      1.0000 0.75807  0.70644  0.09608  Biso   1.000  C
  C47      1.0000 0.74181  0.20641  0.90396  Biso   1.000  C
  C48      1.0000 0.74194  0.29363  0.59600  Biso   1.000  C
  C49      1.0000 0.34906  0.24243  0.62927  Biso   1.000  C
  C50      1.0000 0.34916  0.25741  0.87053  Biso   1.000  C
  C51      1.0000 0.15091  0.75748  0.12942  Biso   1.000  C
  C52      1.0000 0.15083  0.74251  0.37060  Biso   1.000  C
  C53      1.0000 0.65095  0.75758  0.37073  Biso   1.000  C
  C54      1.0000 0.65084  0.74259  0.12946  Biso   1.000  C
  C55      1.0000 0.84909  0.24251  0.87058  Biso   1.000  C
  C56      1.0000 0.84918  0.25749  0.62940  Biso   1.000  C
  C57      1.0000 0.39448  0.17859  0.66723  Biso   1.000  C
  C58      1.0000 0.39470  0.32124  0.83258  Biso   1.000  C
  C59      1.0000 0.10529  0.82138  0.16737  Biso   1.000  C
  C60      1.0000 0.10524  0.67865  0.33264  Biso   1.000  C
  C61      1.0000 0.60554  0.82141  0.33276  Biso   1.000  C
  C62      1.0000 0.60529  0.67876  0.16742  Biso   1.000  C
  C63      1.0000 0.89472  0.17861  0.83264  Biso   1.000  C
  C64      1.0000 0.89479  0.32135  0.66736  Biso   1.000  C
  C65      1.0000 0.32818  0.08015  0.66954  Biso   1.000  C
  C66      1.0000 0.32853  0.41970  0.83032  Biso   1.000  C
  C67      1.0000 0.17139  0.91985  0.16964  Biso   1.000  C
  C68      1.0000 0.17135  0.58016  0.33036  Biso   1.000  C
  C69      1.0000 0.67182  0.91985  0.33046  Biso   1.000  C
  C70      1.0000 0.67147  0.58031  0.16967  Biso   1.000  C
  C71      1.0000 0.82861  0.08014  0.83036  Biso   1.000  C
  C72      1.0000 0.82867  0.41984  0.66964  Biso   1.000  C
  C73      1.0000 0.22124  0.05010  0.63492  Biso   1.000  C
  C74      1.0000 0.22153  0.44971  0.86492  Biso   1.000  C
  C75      1.0000 0.27840  0.94982  0.13505  Biso   1.000  C
  C76      1.0000 0.27838  0.55018  0.36496  Biso   1.000  C
  C77      1.0000 0.77875  0.94991  0.36508  Biso   1.000  C
  C78      1.0000 0.77847  0.55029  0.13508  Biso   1.000  C
  C79      1.0000 0.72160  0.05017  0.86495  Biso   1.000  C
  C80      1.0000 0.72164  0.44982  0.63504  Biso   1.000  C
  C81      1.0000 0.50083  0.21529  0.70638  Biso   1.000  C
  C82      1.0000 0.50095  0.28454  0.79344  Biso   1.000  C
  C83      1.0000 0.99902  0.78471  0.20650  Biso   1.000  C
  C84      1.0000 0.99899  0.71536  0.29349  Biso   1.000  C
  C85      1.0000 0.49918  0.78471  0.29361  Biso   1.000  C
  C86      1.0000 0.49904  0.71545  0.20656  Biso   1.000  C
  C87      1.0000 0.00098  0.21527  0.79350  Biso   1.000  C
  C88      1.0000 0.00102  0.28463  0.70651  Biso   1.000  C
  C89      1.0000 0.40500  0.24992  0.74991  Biso   1.000  C
  C90      1.0000 0.09489  0.75006  0.25001  Biso   1.000  C
  C91      1.0000 0.59499  0.75007  0.25009  Biso   1.000  C
  C92      1.0000 0.90512  0.24994  0.74999  Biso   1.000  C
  N1       1.0000 0.17791  0.11202  0.59854  Biso   1.000  N
  N2       1.0000 0.17799  0.38780  0.90126  Biso   1.000  N
  N3       1.0000 0.32201  0.88786  0.09872  Biso   1.000  N
  N4       1.0000 0.32195  0.61211  0.40131  Biso   1.000  N
  N5       1.0000 0.82208  0.88799  0.40146  Biso   1.000  N
  N6       1.0000 0.82200  0.61220  0.09874  Biso   1.000  N
  N7       1.0000 0.67799  0.11213  0.90128  Biso   1.000  N
  N8       1.0000 0.67808  0.38788  0.59869  Biso   1.000  N
  O1       1.0000 0.99820  0.18030  0.50489  Biso   1.000  O
  O2       1.0000 0.99916  0.32036  0.99536  Biso   1.000  O
  O3       1.0000 0.50084  0.82038  0.00464  Biso   1.000  O
  O4       1.0000 0.50065  0.67969  0.49539  Biso   1.000  O
  O5       1.0000 0.00178  0.81973  0.49511  Biso   1.000  O
  O6       1.0000 0.00082  0.67964  0.00463  Biso   1.000  O
  O7       1.0000 0.49917  0.17962  0.99536  Biso   1.000  O
  O8       1.0000 0.49934  0.32029  0.50461  Biso   1.000  O
  O9       1.0000 0.91284  0.09712  0.43791  Biso   1.000  O
  O10      1.0000 0.91348  0.40325  0.06223  Biso   1.000  O
  O11      1.0000 0.58645  0.90320  0.93777  Biso   1.000  O
  O12      1.0000 0.58666  0.59685  0.56222  Biso   1.000  O
  O13      1.0000 0.08721  0.90286  0.56210  Biso   1.000  O
  O14      1.0000 0.08654  0.59674  0.93777  Biso   1.000  O
  O15      1.0000 0.41356  0.09681  0.06223  Biso   1.000  O
  O16      1.0000 0.41334  0.40317  0.43779  Biso   1.000  O
  O17      1.0000 0.75155  0.45842  0.50114  Biso   1.000  O
  O18      1.0000 0.75146  0.04167  0.99886  Biso   1.000  O
  O19      1.0000 0.74854  0.54168  0.00115  Biso   1.000  O
  O20      1.0000 0.74890  0.95793  0.49915  Biso   1.000  O
  O21      1.0000 0.24845  0.54158  0.49886  Biso   1.000  O
  O22      1.0000 0.24855  0.95834  0.00115  Biso   1.000  O
  O23      1.0000 0.25144  0.45831  0.99885  Biso   1.000  O
  O24      1.0000 0.25114  0.04211  0.50085  Biso   1.000  O
  O25      1.0000 0.66302  0.53916  0.43416  Biso   1.000  O
  O26      1.0000 0.66332  0.96088  0.06586  Biso   1.000  O
  O27      1.0000 0.83677  0.46083  0.93415  Biso   1.000  O
  O28      1.0000 0.83663  0.03867  0.56640  Biso   1.000  O
  O29      1.0000 0.33695  0.46083  0.56584  Biso   1.000  O
  O30      1.0000 0.33668  0.03912  0.93414  Biso   1.000  O
  O31      1.0000 0.16324  0.53918  0.06585  Biso   1.000  O
  O32      1.0000 0.16336  0.96133  0.43362  Biso   1.000  O
