data_image0
_cell_length_a       10.8499
_cell_length_b       10.9946
_cell_length_c       14.1587
_cell_angle_alpha    112.852
_cell_angle_beta     93.6211
_cell_angle_gamma    90.0059

_symmetry_space_group_name_H-M    "P 1"
_symmetry_int_tables_number       1

loop_
  _symmetry_equiv_pos_as_xyz
  'x, y, z'

loop_
  _atom_site_label
  _atom_site_occupancy
  _atom_site_fract_x
  _atom_site_fract_y
  _atom_site_fract_z
  _atom_site_thermal_displace_type
  _atom_site_B_iso_or_equiv
  _atom_site_type_symbol
  Cu1      1.0000 0.25004  0.16017  0.00002  Biso   1.000  Cu
  Cu2      1.0000 0.74993  0.83982  0.99999  Biso   1.000  Cu
  Cu3      1.0000 0.49999  0.00001  0.50001  Biso   1.000  Cu
  Cu4      1.0000 0.99998  0.50001  0.50000  Biso   1.000  Cu
  H1       1.0000 0.00385  0.14566  0.06445  Biso   1.000  H
  H2       1.0000 0.49610  0.08119  0.93556  Biso   1.000  H
  H3       1.0000 0.99616  0.85435  0.93553  Biso   1.000  H
  H4       1.0000 0.50388  0.91884  0.06447  Biso   1.000  H
  H5       1.0000 0.02547  0.08647  0.94850  Biso   1.000  H
  H6       1.0000 0.47456  0.13791  0.05153  Biso   1.000  H
  H7       1.0000 0.97455  0.91352  0.05148  Biso   1.000  H
  H8       1.0000 0.52542  0.86211  0.94849  Biso   1.000  H
  H9       1.0000 0.34669  0.74209  0.47480  Biso   1.000  H
  H10      1.0000 0.15331  0.26727  0.52519  Biso   1.000  H
  H11      1.0000 0.65335  0.25789  0.52519  Biso   1.000  H
  H12      1.0000 0.84664  0.73273  0.47482  Biso   1.000  H
  H13      1.0000 0.49345  0.73635  0.47481  Biso   1.000  H
  H14      1.0000 0.00656  0.26151  0.52518  Biso   1.000  H
  H15      1.0000 0.50659  0.26367  0.52521  Biso   1.000  H
  H16      1.0000 0.99339  0.73849  0.47481  Biso   1.000  H
  H17      1.0000 0.10367  0.37391  0.98007  Biso   1.000  H
  H18      1.0000 0.39628  0.39397  0.01988  Biso   1.000  H
  H19      1.0000 0.89632  0.62610  0.01994  Biso   1.000  H
  H20      1.0000 0.60373  0.60603  0.98011  Biso   1.000  H
  H21      1.0000 0.20494  0.42002  0.70513  Biso   1.000  H
  H22      1.0000 0.29507  0.71495  0.29491  Biso   1.000  H
  H23      1.0000 0.79508  0.57996  0.29487  Biso   1.000  H
  H24      1.0000 0.70492  0.28504  0.70509  Biso   1.000  H
  H25      1.0000 0.33309  0.09990  0.78642  Biso   1.000  H
  H26      1.0000 0.16687  0.31349  0.21350  Biso   1.000  H
  H27      1.0000 0.66693  0.90012  0.21362  Biso   1.000  H
  H28      1.0000 0.83310  0.68651  0.78648  Biso   1.000  H
  H29      1.0000 0.09902  0.00362  0.20365  Biso   1.000  H
  H30      1.0000 0.40091  0.79999  0.79642  Biso   1.000  H
  H31      1.0000 0.90099  0.99635  0.79633  Biso   1.000  H
  H32      1.0000 0.59908  0.20000  0.20360  Biso   1.000  H
  H33      1.0000 0.22954  0.93594  0.47380  Biso   1.000  H
  H34      1.0000 0.27031  0.46219  0.52620  Biso   1.000  H
  H35      1.0000 0.77043  0.06408  0.52621  Biso   1.000  H
  H36      1.0000 0.72973  0.53782  0.47379  Biso   1.000  H
  H37      1.0000 0.48325  0.04972  0.31381  Biso   1.000  H
  H38      1.0000 0.01668  0.73603  0.68624  Biso   1.000  H
  H39      1.0000 0.51676  0.95030  0.68622  Biso   1.000  H
  H40      1.0000 0.98334  0.26394  0.31372  Biso   1.000  H
  C1       1.0000 0.15309  0.34302  0.91037  Biso   1.000  C
  C2       1.0000 0.34690  0.43273  0.08960  Biso   1.000  C
  C3       1.0000 0.84691  0.65700  0.08964  Biso   1.000  C
  C4       1.0000 0.65311  0.56726  0.91039  Biso   1.000  C
  C5       1.0000 0.14794  0.41423  0.84752  Biso   1.000  C
  C6       1.0000 0.35211  0.56680  0.15251  Biso   1.000  C
  C7       1.0000 0.85206  0.58576  0.15248  Biso   1.000  C
  C8       1.0000 0.64790  0.43319  0.84749  Biso   1.000  C
  C9       1.0000 0.20765  0.36753  0.75644  Biso   1.000  C
  C10      1.0000 0.29241  0.61113  0.24359  Biso   1.000  C
  C11      1.0000 0.79237  0.63246  0.24356  Biso   1.000  C
  C12      1.0000 0.70759  0.38886  0.75641  Biso   1.000  C
  C13      1.0000 0.27304  0.25117  0.73183  Biso   1.000  C
  C14      1.0000 0.22702  0.51936  0.26818  Biso   1.000  C
  C15      1.0000 0.72698  0.74885  0.26820  Biso   1.000  C
  C16      1.0000 0.77298  0.48063  0.73180  Biso   1.000  C
  C17      1.0000 0.27949  0.18821  0.80090  Biso   1.000  C
  C18      1.0000 0.22051  0.38732  0.19905  Biso   1.000  C
  C19      1.0000 0.72053  0.81181  0.19912  Biso   1.000  C
  C20      1.0000 0.77947  0.61268  0.80093  Biso   1.000  C
  C21      1.0000 0.33836  0.19857  0.63319  Biso   1.000  C
  C22      1.0000 0.16170  0.56538  0.36683  Biso   1.000  C
  C23      1.0000 0.66166  0.80143  0.36682  Biso   1.000  C
  C24      1.0000 0.83826  0.43462  0.63315  Biso   1.000  C
  C25      1.0000 0.32825  0.06734  0.16018  Biso   1.000  C
  C26      1.0000 0.17180  0.90726  0.83990  Biso   1.000  C
  C27      1.0000 0.67174  0.93268  0.83984  Biso   1.000  C
  C28      1.0000 0.82823  0.09274  0.16008  Biso   1.000  C
  C29      1.0000 0.29517  0.02848  0.24644  Biso   1.000  C
  C30      1.0000 0.20476  0.78211  0.75362  Biso   1.000  C
  C31      1.0000 0.70483  0.97152  0.75356  Biso   1.000  C
  C32      1.0000 0.79523  0.21787  0.24638  Biso   1.000  C
  C33      1.0000 0.17329  0.99787  0.25703  Biso   1.000  C
  C34      1.0000 0.32663  0.74089  0.74303  Biso   1.000  C
  C35      1.0000 0.82671  0.00212  0.74298  Biso   1.000  C
  C36      1.0000 0.67336  0.25910  0.25698  Biso   1.000  C
  C37      1.0000 0.14934  0.96304  0.33884  Biso   1.000  C
  C38      1.0000 0.35055  0.62422  0.66119  Biso   1.000  C
  C39      1.0000 0.85065  0.03696  0.66117  Biso   1.000  C
  C40      1.0000 0.64945  0.37578  0.33881  Biso   1.000  C
  C41      1.0000 0.24534  0.96210  0.40881  Biso   1.000  C
  C42      1.0000 0.25455  0.55336  0.59121  Biso   1.000  C
  C43      1.0000 0.75466  0.03792  0.59120  Biso   1.000  C
  C44      1.0000 0.74546  0.44664  0.40877  Biso   1.000  C
  C45      1.0000 0.38747  0.02495  0.31843  Biso   1.000  C
  C46      1.0000 0.11245  0.70662  0.68160  Biso   1.000  C
  C47      1.0000 0.61252  0.97506  0.68158  Biso   1.000  C
  C48      1.0000 0.88757  0.29336  0.31837  Biso   1.000  C
  N1       1.0000 0.22074  0.23408  0.88820  Biso   1.000  N
  N2       1.0000 0.27925  0.34595  0.11175  Biso   1.000  N
  N3       1.0000 0.77928  0.76595  0.11182  Biso   1.000  N
  N4       1.0000 0.72074  0.65405  0.88824  Biso   1.000  N
  N5       1.0000 0.36189  0.99324  0.39769  Biso   1.000  N
  N6       1.0000 0.13801  0.59565  0.60232  Biso   1.000  N
  N7       1.0000 0.63810  0.00676  0.60232  Biso   1.000  N
  N8       1.0000 0.86200  0.40432  0.39764  Biso   1.000  N
  Cl1      1.0000 0.07403  0.56243  0.88739  Biso   1.000  Cl
  Cl2      1.0000 0.42599  0.67519  0.11268  Biso   1.000  Cl
  Cl3      1.0000 0.92594  0.43755  0.11259  Biso   1.000  Cl
  Cl4      1.0000 0.57404  0.32481  0.88734  Biso   1.000  Cl
  Cl5      1.0000 0.00084  0.92153  0.35429  Biso   1.000  Cl
  Cl6      1.0000 0.49902  0.56718  0.64575  Biso   1.000  Cl
  Cl7      1.0000 0.99915  0.07846  0.64570  Biso   1.000  Cl
  Cl8      1.0000 0.50099  0.43281  0.35426  Biso   1.000  Cl
  O1       1.0000 0.32882  0.25969  0.57422  Biso   1.000  O
  O2       1.0000 0.17124  0.68549  0.42581  Biso   1.000  O
  O3       1.0000 0.67119  0.74029  0.42579  Biso   1.000  O
  O4       1.0000 0.82870  0.31450  0.57416  Biso   1.000  O
  O5       1.0000 0.39869  0.09330  0.61939  Biso   1.000  O
  O6       1.0000 0.10141  0.47389  0.38065  Biso   1.000  O
  O7       1.0000 0.60132  0.90673  0.38063  Biso   1.000  O
  O8       1.0000 0.89857  0.52611  0.61931  Biso   1.000  O
  O9       1.0000 0.23655  0.08971  0.10858  Biso   1.000  O
  O10      1.0000 0.26357  0.98114  0.89153  Biso   1.000  O
  O11      1.0000 0.76344  0.91033  0.89145  Biso   1.000  O
  O12      1.0000 0.73644  0.01887  0.10847  Biso   1.000  O
  O13      1.0000 0.44127  0.07600  0.14598  Biso   1.000  O
  O14      1.0000 0.05881  0.93027  0.85412  Biso   1.000  O
  O15      1.0000 0.55873  0.92402  0.85404  Biso   1.000  O
  O16      1.0000 0.94122  0.06976  0.14587  Biso   1.000  O
  O17      1.0000 0.02541  0.17212  0.00841  Biso   1.000  O
  O18      1.0000 0.47455  0.16367  0.99164  Biso   1.000  O
  O19      1.0000 0.97462  0.82787  0.99156  Biso   1.000  O
  O20      1.0000 0.52544  0.83635  0.00838  Biso   1.000  O
  O21      1.0000 0.42435  0.78823  0.50985  Biso   1.000  O
  O22      1.0000 0.07566  0.27838  0.49015  Biso   1.000  O
  O23      1.0000 0.57567  0.21176  0.49016  Biso   1.000  O
  O24      1.0000 0.92431  0.72160  0.50983  Biso   1.000  O
