data_image0
_cell_length_a       6.70756
_cell_length_b       22.8162
_cell_length_c       24.047
_cell_angle_alpha    90.0016
_cell_angle_beta     104.532
_cell_angle_gamma    90.0018

_symmetry_space_group_name_H-M    "P 1"
_symmetry_int_tables_number       1

loop_
  _symmetry_equiv_pos_as_xyz
  'x, y, z'

loop_
  _atom_site_label
  _atom_site_occupancy
  _atom_site_fract_x
  _atom_site_fract_y
  _atom_site_fract_z
  _atom_site_thermal_displace_type
  _atom_site_B_iso_or_equiv
  _atom_site_type_symbol
  Ag1      1.0000 0.05448  0.46497  0.24115  Biso   1.000  Ag
  Ag2      1.0000 0.94548  0.96496  0.25885  Biso   1.000  Ag
  Ag3      1.0000 0.94547  0.53504  0.75884  Biso   1.000  Ag
  Ag4      1.0000 0.05455  0.03504  0.74116  Biso   1.000  Ag
  Ag5      1.0000 0.45514  0.52322  0.25122  Biso   1.000  Ag
  Ag6      1.0000 0.54486  0.02322  0.24878  Biso   1.000  Ag
  Ag7      1.0000 0.54484  0.47677  0.74876  Biso   1.000  Ag
  Ag8      1.0000 0.45519  0.97677  0.75124  Biso   1.000  Ag
  H1       1.0000 0.16641  0.36656  0.33358  Biso   1.000  H
  H2       1.0000 0.83350  0.86655  0.16643  Biso   1.000  H
  H3       1.0000 0.83355  0.63345  0.66643  Biso   1.000  H
  H4       1.0000 0.16651  0.13346  0.83357  Biso   1.000  H
  H5       1.0000 0.18831  0.25730  0.34116  Biso   1.000  H
  H6       1.0000 0.81160  0.75729  0.15885  Biso   1.000  H
  H7       1.0000 0.81167  0.74270  0.65885  Biso   1.000  H
  H8       1.0000 0.18840  0.24272  0.84115  Biso   1.000  H
  H9       1.0000 0.93548  0.25077  0.15715  Biso   1.000  H
  H10      1.0000 0.06457  0.75077  0.34284  Biso   1.000  H
  H11      1.0000 0.06453  0.74924  0.84286  Biso   1.000  H
  H12      1.0000 0.93543  0.24923  0.65715  Biso   1.000  H
  H13      1.0000 0.91939  0.36035  0.15865  Biso   1.000  H
  H14      1.0000 0.08061  0.86035  0.34136  Biso   1.000  H
  H15      1.0000 0.08058  0.63965  0.84137  Biso   1.000  H
  H16      1.0000 0.91938  0.13964  0.65864  Biso   1.000  H
  H17      1.0000 0.09465  0.06361  0.34339  Biso   1.000  H
  H18      1.0000 0.90535  0.56361  0.15660  Biso   1.000  H
  H19      1.0000 0.90540  0.93638  0.65662  Biso   1.000  H
  H20      1.0000 0.09464  0.43640  0.84338  Biso   1.000  H
  H21      1.0000 0.09286  0.17202  0.34344  Biso   1.000  H
  H22      1.0000 0.90711  0.67203  0.15655  Biso   1.000  H
  H23      1.0000 0.90714  0.82797  0.65657  Biso   1.000  H
  H24      1.0000 0.09290  0.32799  0.84343  Biso   1.000  H
  H25      1.0000 0.04382  0.16479  0.16056  Biso   1.000  H
  H26      1.0000 0.95620  0.66479  0.33943  Biso   1.000  H
  H27      1.0000 0.95624  0.83522  0.83945  Biso   1.000  H
  H28      1.0000 0.04377  0.33522  0.66055  Biso   1.000  H
  H29      1.0000 0.04101  0.05644  0.16843  Biso   1.000  H
  H30      1.0000 0.95903  0.55644  0.33155  Biso   1.000  H
  H31      1.0000 0.95910  0.94357  0.83158  Biso   1.000  H
  H32      1.0000 0.04090  0.44357  0.66842  Biso   1.000  H
  H33      1.0000 0.24670  0.46135  0.05317  Biso   1.000  H
  H34      1.0000 0.75334  0.96135  0.44681  Biso   1.000  H
  H35      1.0000 0.75328  0.53865  0.94682  Biso   1.000  H
  H36      1.0000 0.24673  0.03865  0.55319  Biso   1.000  H
  H37      1.0000 0.09154  0.39803  0.03521  Biso   1.000  H
  H38      1.0000 0.90850  0.89803  0.46478  Biso   1.000  H
  H39      1.0000 0.90848  0.60197  0.96479  Biso   1.000  H
  H40      1.0000 0.09158  0.10197  0.53522  Biso   1.000  H
  H41      1.0000 0.77490  0.45799  0.02558  Biso   1.000  H
  H42      1.0000 0.22513  0.95799  0.47442  Biso   1.000  H
  H43      1.0000 0.22508  0.54201  0.97440  Biso   1.000  H
  H44      1.0000 0.77494  0.04201  0.52559  Biso   1.000  H
  H45      1.0000 0.79572  0.56324  0.04995  Biso   1.000  H
  H46      1.0000 0.20440  0.06325  0.45007  Biso   1.000  H
  H47      1.0000 0.20429  0.43675  0.95005  Biso   1.000  H
  H48      1.0000 0.79568  0.93676  0.54993  Biso   1.000  H
  H49      1.0000 0.06831  0.56133  0.06249  Biso   1.000  H
  H50      1.0000 0.93178  0.06134  0.43751  Biso   1.000  H
  H51      1.0000 0.93170  0.43866  0.93751  Biso   1.000  H
  H52      1.0000 0.06829  0.93867  0.56249  Biso   1.000  H
  H53      1.0000 0.66567  0.42984  0.33521  Biso   1.000  H
  H54      1.0000 0.33434  0.92981  0.16481  Biso   1.000  H
  H55      1.0000 0.33440  0.57017  0.66479  Biso   1.000  H
  H56      1.0000 0.66563  0.07020  0.83520  Biso   1.000  H
  H57      1.0000 0.69341  0.32182  0.34146  Biso   1.000  H
  H58      1.0000 0.30653  0.82179  0.15856  Biso   1.000  H
  H59      1.0000 0.30661  0.67819  0.65855  Biso   1.000  H
  H60      1.0000 0.69343  0.17822  0.84143  Biso   1.000  H
  H61      1.0000 0.43422  0.31676  0.15747  Biso   1.000  H
  H62      1.0000 0.56564  0.81676  0.34256  Biso   1.000  H
  H63      1.0000 0.56567  0.68323  0.84255  Biso   1.000  H
  H64      1.0000 0.43431  0.18321  0.65743  Biso   1.000  H
  H65      1.0000 0.42812  0.42502  0.15882  Biso   1.000  H
  H66      1.0000 0.57180  0.92503  0.34120  Biso   1.000  H
  H67      1.0000 0.57181  0.57496  0.84119  Biso   1.000  H
  H68      1.0000 0.42819  0.07495  0.65881  Biso   1.000  H
  H69      1.0000 0.59875  0.12633  0.34204  Biso   1.000  H
  H70      1.0000 0.40119  0.62632  0.15798  Biso   1.000  H
  H71      1.0000 0.40123  0.87368  0.65799  Biso   1.000  H
  H72      1.0000 0.59879  0.37369  0.84200  Biso   1.000  H
  H73      1.0000 0.59815  0.23473  0.34342  Biso   1.000  H
  H74      1.0000 0.40177  0.73471  0.15660  Biso   1.000  H
  H75      1.0000 0.40180  0.76527  0.65660  Biso   1.000  H
  H76      1.0000 0.59821  0.26529  0.84338  Biso   1.000  H
  H77      1.0000 0.53293  0.23029  0.16004  Biso   1.000  H
  H78      1.0000 0.46705  0.73026  0.33999  Biso   1.000  H
  H79      1.0000 0.46714  0.76972  0.83999  Biso   1.000  H
  H80      1.0000 0.53286  0.26972  0.66000  Biso   1.000  H
  H81      1.0000 0.53309  0.12124  0.16653  Biso   1.000  H
  H82      1.0000 0.46691  0.62121  0.33348  Biso   1.000  H
  H83      1.0000 0.46702  0.87877  0.83350  Biso   1.000  H
  H84      1.0000 0.53298  0.37877  0.66649  Biso   1.000  H
  H85      1.0000 0.49966  0.57671  0.45813  Biso   1.000  H
  H86      1.0000 0.50031  0.07672  0.04188  Biso   1.000  H
  H87      1.0000 0.50025  0.42327  0.54185  Biso   1.000  H
  H88      1.0000 0.49976  0.92329  0.95814  Biso   1.000  H
  H89      1.0000 0.23047  0.57099  0.44998  Biso   1.000  H
  H90      1.0000 0.76950  0.07102  0.05002  Biso   1.000  H
  H91      1.0000 0.76945  0.42899  0.55000  Biso   1.000  H
  H92      1.0000 0.23057  0.92900  0.95000  Biso   1.000  H
  H93      1.0000 0.25448  0.46242  0.44714  Biso   1.000  H
  H94      1.0000 0.74555  0.96245  0.05285  Biso   1.000  H
  H95      1.0000 0.74543  0.53756  0.55284  Biso   1.000  H
  H96      1.0000 0.25454  0.03756  0.94716  Biso   1.000  H
  H97      1.0000 0.71295  0.48185  0.45625  Biso   1.000  H
  H98      1.0000 0.28708  0.98186  0.04375  Biso   1.000  H
  H99      1.0000 0.28696  0.51813  0.54373  Biso   1.000  H
  H100     1.0000 0.71302  0.01816  0.95627  Biso   1.000  H
  H101     1.0000 0.58367  0.41345  0.44641  Biso   1.000  H
  H102     1.0000 0.41639  0.91347  0.05358  Biso   1.000  H
  H103     1.0000 0.41625  0.58653  0.55357  Biso   1.000  H
  H104     1.0000 0.58369  0.08655  0.94643  Biso   1.000  H
  C1       1.0000 0.11644  0.33836  0.29592  Biso   1.000  C
  C2       1.0000 0.88348  0.83835  0.20408  Biso   1.000  C
  C3       1.0000 0.88353  0.66165  0.70409  Biso   1.000  C
  C4       1.0000 0.11652  0.16166  0.79591  Biso   1.000  C
  C5       1.0000 0.12745  0.27766  0.29936  Biso   1.000  C
  C6       1.0000 0.87248  0.77766  0.20064  Biso   1.000  C
  C7       1.0000 0.87252  0.72235  0.70065  Biso   1.000  C
  C8       1.0000 0.12752  0.22235  0.79935  Biso   1.000  C
  C9       1.0000 0.06324  0.24351  0.24943  Biso   1.000  C
  C10      1.0000 0.93674  0.74351  0.25057  Biso   1.000  C
  C11      1.0000 0.93676  0.75650  0.75058  Biso   1.000  C
  C12      1.0000 0.06326  0.25650  0.74942  Biso   1.000  C
  C13      1.0000 0.99145  0.27409  0.19760  Biso   1.000  C
  C14      1.0000 0.00856  0.77408  0.30240  Biso   1.000  C
  C15      1.0000 0.00855  0.72592  0.80241  Biso   1.000  C
  C16      1.0000 0.99145  0.22592  0.69759  Biso   1.000  C
  C17      1.0000 0.98225  0.33489  0.19759  Biso   1.000  C
  C18      1.0000 0.01773  0.83488  0.30241  Biso   1.000  C
  C19      1.0000 0.01774  0.66512  0.80242  Biso   1.000  C
  C20      1.0000 0.98227  0.16511  0.69759  Biso   1.000  C
  C21      1.0000 0.08563  0.08805  0.30396  Biso   1.000  C
  C22      1.0000 0.91438  0.58805  0.19603  Biso   1.000  C
  C23      1.0000 0.91443  0.91195  0.69604  Biso   1.000  C
  C24      1.0000 0.08560  0.41196  0.80395  Biso   1.000  C
  C25      1.0000 0.08436  0.14876  0.30336  Biso   1.000  C
  C26      1.0000 0.91564  0.64876  0.19663  Biso   1.000  C
  C27      1.0000 0.91566  0.85124  0.69664  Biso   1.000  C
  C28      1.0000 0.08437  0.35125  0.80335  Biso   1.000  C
  C29      1.0000 0.06722  0.17912  0.25155  Biso   1.000  C
  C30      1.0000 0.93277  0.67911  0.24845  Biso   1.000  C
  C31      1.0000 0.93280  0.82088  0.74846  Biso   1.000  C
  C32      1.0000 0.06722  0.32089  0.75153  Biso   1.000  C
  C33      1.0000 0.05218  0.14471  0.20216  Biso   1.000  C
  C34      1.0000 0.94783  0.64470  0.29783  Biso   1.000  C
  C35      1.0000 0.94787  0.85529  0.79784  Biso   1.000  C
  C36      1.0000 0.05214  0.35530  0.70215  Biso   1.000  C
  C37      1.0000 0.05304  0.08404  0.20616  Biso   1.000  C
  C38      1.0000 0.94699  0.58403  0.29383  Biso   1.000  C
  C39      1.0000 0.94704  0.91597  0.79384  Biso   1.000  C
  C40      1.0000 0.05296  0.41597  0.70615  Biso   1.000  C
  C41      1.0000 0.94717  0.46553  0.11278  Biso   1.000  C
  C42      1.0000 0.05287  0.96555  0.38722  Biso   1.000  C
  C43      1.0000 0.05276  0.53445  0.88720  Biso   1.000  C
  C44      1.0000 0.94719  0.03446  0.61279  Biso   1.000  C
  C45      1.0000 0.09627  0.44564  0.02750  Biso   1.000  C
  C46      1.0000 0.90376  0.94565  0.47248  Biso   1.000  C
  C47      1.0000 0.90372  0.55436  0.97250  Biso   1.000  C
  C48      1.0000 0.09632  0.05436  0.52752  Biso   1.000  C
  C49      1.0000 0.92515  0.47621  0.04864  Biso   1.000  C
  C50      1.0000 0.07491  0.97622  0.45137  Biso   1.000  C
  C51      1.0000 0.07483  0.52379  0.95135  Biso   1.000  C
  C52      1.0000 0.92516  0.02379  0.54865  Biso   1.000  C
  C53      1.0000 0.92382  0.54234  0.03621  Biso   1.000  C
  C54      1.0000 0.07625  0.04234  0.46379  Biso   1.000  C
  C55      1.0000 0.07619  0.45766  0.96378  Biso   1.000  C
  C56      1.0000 0.92380  0.95766  0.53621  Biso   1.000  C
  C57      1.0000 0.61710  0.40280  0.29681  Biso   1.000  C
  C58      1.0000 0.38286  0.90278  0.20321  Biso   1.000  C
  C59      1.0000 0.38291  0.59721  0.70320  Biso   1.000  C
  C60      1.0000 0.61711  0.09722  0.79680  Biso   1.000  C
  C61      1.0000 0.62935  0.34213  0.29986  Biso   1.000  C
  C62      1.0000 0.37060  0.84211  0.20017  Biso   1.000  C
  C63      1.0000 0.37065  0.65788  0.70016  Biso   1.000  C
  C64      1.0000 0.62936  0.15789  0.79982  Biso   1.000  C
  C65      1.0000 0.56166  0.30829  0.24981  Biso   1.000  C
  C66      1.0000 0.43826  0.80828  0.25022  Biso   1.000  C
  C67      1.0000 0.43831  0.69171  0.75022  Biso   1.000  C
  C68      1.0000 0.56170  0.19171  0.74977  Biso   1.000  C
  C69      1.0000 0.49020  0.33933  0.19828  Biso   1.000  C
  C70      1.0000 0.50970  0.83933  0.30175  Biso   1.000  C
  C71      1.0000 0.50973  0.66066  0.80174  Biso   1.000  C
  C72      1.0000 0.49026  0.16065  0.69824  Biso   1.000  C
  C73      1.0000 0.48484  0.40027  0.19825  Biso   1.000  C
  C74      1.0000 0.51509  0.90027  0.30177  Biso   1.000  C
  C75      1.0000 0.51511  0.59973  0.80176  Biso   1.000  C
  C76      1.0000 0.48490  0.09972  0.69823  Biso   1.000  C
  C77      1.0000 0.58474  0.15113  0.30247  Biso   1.000  C
  C78      1.0000 0.41521  0.65112  0.19754  Biso   1.000  C
  C79      1.0000 0.41528  0.84887  0.69755  Biso   1.000  C
  C80      1.0000 0.58475  0.34888  0.80243  Biso   1.000  C
  C81      1.0000 0.58596  0.21208  0.30283  Biso   1.000  C
  C82      1.0000 0.41398  0.71207  0.19718  Biso   1.000  C
  C83      1.0000 0.41404  0.78792  0.69720  Biso   1.000  C
  C84      1.0000 0.58599  0.28792  0.80279  Biso   1.000  C
  C85      1.0000 0.56500  0.24349  0.25142  Biso   1.000  C
  C86      1.0000 0.43493  0.74347  0.24861  Biso   1.000  C
  C87      1.0000 0.43500  0.75651  0.74861  Biso   1.000  C
  C88      1.0000 0.56502  0.25652  0.75137  Biso   1.000  C
  C89      1.0000 0.54564  0.20959  0.20158  Biso   1.000  C
  C90      1.0000 0.45434  0.70957  0.29844  Biso   1.000  C
  C91      1.0000 0.45441  0.79041  0.79845  Biso   1.000  C
  C92      1.0000 0.54560  0.29041  0.70153  Biso   1.000  C
  C93      1.0000 0.54653  0.14877  0.20447  Biso   1.000  C
  C94      1.0000 0.45345  0.64875  0.29555  Biso   1.000  C
  C95      1.0000 0.45354  0.85123  0.79556  Biso   1.000  C
  C96      1.0000 0.54647  0.35124  0.70442  Biso   1.000  C
  C97      1.0000 0.35039  0.49406  0.37451  Biso   1.000  C
  C98      1.0000 0.64965  0.99406  0.12549  Biso   1.000  C
  C99      1.0000 0.64951  0.50593  0.62547  Biso   1.000  C
  C100     1.0000 0.35047  0.00595  0.87452  Biso   1.000  C
  C101     1.0000 0.37889  0.54905  0.46841  Biso   1.000  C
  C102     1.0000 0.62108  0.04907  0.03159  Biso   1.000  C
  C103     1.0000 0.62103  0.45094  0.53157  Biso   1.000  C
  C104     1.0000 0.37899  0.95094  0.96842  Biso   1.000  C
  C105     1.0000 0.38240  0.48914  0.43979  Biso   1.000  C
  C106     1.0000 0.61764  0.98916  0.06021  Biso   1.000  C
  C107     1.0000 0.61754  0.51084  0.56020  Biso   1.000  C
  C108     1.0000 0.38247  0.01086  0.93981  Biso   1.000  C
  C109     1.0000 0.58545  0.45702  0.46644  Biso   1.000  C
  C110     1.0000 0.41457  0.95703  0.03355  Biso   1.000  C
  C111     1.0000 0.41446  0.54296  0.53353  Biso   1.000  C
  C112     1.0000 0.58550  0.04298  0.96646  Biso   1.000  C
  N1       1.0000 0.04298  0.36684  0.24596  Biso   1.000  N
  N2       1.0000 0.95698  0.86683  0.25405  Biso   1.000  N
  N3       1.0000 0.95699  0.63317  0.75405  Biso   1.000  N
  N4       1.0000 0.04303  0.13317  0.74595  Biso   1.000  N
  N5       1.0000 0.06927  0.05555  0.25621  Biso   1.000  N
  N6       1.0000 0.93075  0.55555  0.24378  Biso   1.000  N
  N7       1.0000 0.93080  0.94445  0.74380  Biso   1.000  N
  N8       1.0000 0.06921  0.44446  0.75620  Biso   1.000  N
  N9       1.0000 0.54370  0.43180  0.24701  Biso   1.000  N
  N10      1.0000 0.45629  0.93179  0.25301  Biso   1.000  N
  N11      1.0000 0.45629  0.56820  0.75300  Biso   1.000  N
  N12      1.0000 0.54370  0.06820  0.74700  Biso   1.000  N
  N13      1.0000 0.56469  0.11929  0.25420  Biso   1.000  N
  N14      1.0000 0.43528  0.61928  0.24581  Biso   1.000  N
  N15      1.0000 0.43536  0.88071  0.74583  Biso   1.000  N
  N16      1.0000 0.56465  0.38072  0.75416  Biso   1.000  N
  O1       1.0000 0.11982  0.48079  0.14679  Biso   1.000  O
  O2       1.0000 0.88024  0.98080  0.35321  Biso   1.000  O
  O3       1.0000 0.88007  0.51920  0.85320  Biso   1.000  O
  O4       1.0000 0.11984  0.01920  0.64679  Biso   1.000  O
  O5       1.0000 0.79673  0.44380  0.12844  Biso   1.000  O
  O6       1.0000 0.20334  0.94381  0.37156  Biso   1.000  O
  O7       1.0000 0.20320  0.55617  0.87153  Biso   1.000  O
  O8       1.0000 0.79676  0.05619  0.62845  Biso   1.000  O
  O9       1.0000 0.21410  0.46056  0.34407  Biso   1.000  O
  O10      1.0000 0.78592  0.96056  0.15591  Biso   1.000  O
  O11      1.0000 0.78576  0.53944  0.65590  Biso   1.000  O
  O12      1.0000 0.21423  0.03945  0.84410  Biso   1.000  O
  O13      1.0000 0.46392  0.52997  0.35595  Biso   1.000  O
  O14      1.0000 0.53613  0.02996  0.14406  Biso   1.000  O
  O15      1.0000 0.53601  0.47003  0.64404  Biso   1.000  O
  O16      1.0000 0.46398  0.97004  0.85596  Biso   1.000  O
