data_image0
_cell_length_a       8.11253
_cell_length_b       10.058
_cell_length_c       11.6277
_cell_angle_alpha    115.316
_cell_angle_beta     91.8073
_cell_angle_gamma    103.153

_symmetry_space_group_name_H-M    "P 1"
_symmetry_int_tables_number       1

loop_
  _symmetry_equiv_pos_as_xyz
  'x, y, z'

loop_
  _atom_site_label
  _atom_site_occupancy
  _atom_site_fract_x
  _atom_site_fract_y
  _atom_site_fract_z
  _atom_site_thermal_displace_type
  _atom_site_B_iso_or_equiv
  _atom_site_type_symbol
  Ag1      1.0000 0.39304  0.16173  0.05782  Biso   1.000  Ag
  Ag2      1.0000 0.60696  0.83827  0.94218  Biso   1.000  Ag
  H1       1.0000 0.22464  0.82968  0.87519  Biso   1.000  H
  H2       1.0000 0.77536  0.17032  0.12481  Biso   1.000  H
  H3       1.0000 0.00997  0.60625  0.87192  Biso   1.000  H
  H4       1.0000 0.99003  0.39375  0.12807  Biso   1.000  H
  H5       1.0000 0.90124  0.91030  0.23913  Biso   1.000  H
  H6       1.0000 0.09876  0.08970  0.76087  Biso   1.000  H
  H7       1.0000 0.12648  0.11814  0.23065  Biso   1.000  H
  H8       1.0000 0.87352  0.88186  0.76935  Biso   1.000  H
  H9       1.0000 0.54036  0.25988  0.86095  Biso   1.000  H
  H10      1.0000 0.45964  0.74012  0.13905  Biso   1.000  H
  H11      1.0000 0.74479  0.48197  0.85111  Biso   1.000  H
  H12      1.0000 0.25520  0.51803  0.14889  Biso   1.000  H
  H13      1.0000 0.83885  0.69575  0.26705  Biso   1.000  H
  H14      1.0000 0.16115  0.30425  0.73295  Biso   1.000  H
  H15      1.0000 0.62123  0.47064  0.25836  Biso   1.000  H
  H16      1.0000 0.37877  0.52935  0.74164  Biso   1.000  H
  H17      1.0000 0.27860  0.04934  0.38135  Biso   1.000  H
  H18      1.0000 0.72140  0.95066  0.61865  Biso   1.000  H
  H19      1.0000 0.33562  0.87549  0.33376  Biso   1.000  H
  H20      1.0000 0.66438  0.12451  0.66624  Biso   1.000  H
  H21      1.0000 0.57177  0.19590  0.49151  Biso   1.000  H
  H22      1.0000 0.42824  0.80410  0.50849  Biso   1.000  H
  H23      1.0000 0.80585  0.06529  0.46850  Biso   1.000  H
  H24      1.0000 0.19416  0.93471  0.53150  Biso   1.000  H
  H25      1.0000 0.65335  0.88626  0.38766  Biso   1.000  H
  H26      1.0000 0.34665  0.11374  0.61234  Biso   1.000  H
  H27      1.0000 0.17814  0.65191  0.40357  Biso   1.000  H
  H28      1.0000 0.82186  0.34809  0.59643  Biso   1.000  H
  H29      1.0000 0.00608  0.48711  0.32417  Biso   1.000  H
  H30      1.0000 0.99392  0.51289  0.67583  Biso   1.000  H
  H31      1.0000 0.24800  0.55873  0.56257  Biso   1.000  H
  H32      1.0000 0.75200  0.44127  0.43743  Biso   1.000  H
  H33      1.0000 0.95908  0.27283  0.39578  Biso   1.000  H
  H34      1.0000 0.04093  0.72717  0.60422  Biso   1.000  H
  H35      1.0000 0.10060  0.29633  0.52630  Biso   1.000  H
  H36      1.0000 0.89940  0.70367  0.47370  Biso   1.000  H
  H37      1.0000 0.45554  0.27814  0.36100  Biso   1.000  H
  H38      1.0000 0.54446  0.72187  0.63900  Biso   1.000  H
  C1       1.0000 0.15114  0.84115  0.95441  Biso   1.000  C
  C2       1.0000 0.84886  0.15885  0.04559  Biso   1.000  C
  C3       1.0000 0.03113  0.71787  0.95353  Biso   1.000  C
  C4       1.0000 0.96887  0.28213  0.04647  Biso   1.000  C
  C5       1.0000 0.94039  0.73725  0.05766  Biso   1.000  C
  C6       1.0000 0.05961  0.26275  0.94233  Biso   1.000  C
  C7       1.0000 0.97477  0.88485  0.15924  Biso   1.000  C
  C8       1.0000 0.02522  0.11515  0.84076  Biso   1.000  C
  C9       1.0000 0.09750  0.00234  0.15350  Biso   1.000  C
  C10      1.0000 0.90250  0.99766  0.84650  Biso   1.000  C
  C11      1.0000 0.61118  0.35953  0.94794  Biso   1.000  C
  C12      1.0000 0.38882  0.64047  0.05206  Biso   1.000  C
  C13      1.0000 0.72789  0.48136  0.94359  Biso   1.000  C
  C14      1.0000 0.27210  0.51864  0.05641  Biso   1.000  C
  C15      1.0000 0.81456  0.60664  0.05884  Biso   1.000  C
  C16      1.0000 0.18544  0.39335  0.94116  Biso   1.000  C
  C17      1.0000 0.77605  0.60222  0.17426  Biso   1.000  C
  C18      1.0000 0.22395  0.39778  0.82574  Biso   1.000  C
  C19      1.0000 0.65660  0.47663  0.17074  Biso   1.000  C
  C20      1.0000 0.34340  0.52337  0.82926  Biso   1.000  C
  C21      1.0000 0.58416  0.08045  0.29021  Biso   1.000  C
  C22      1.0000 0.41585  0.91955  0.70979  Biso   1.000  C
  C23      1.0000 0.36334  0.99416  0.40969  Biso   1.000  C
  C24      1.0000 0.63666  0.00585  0.59031  Biso   1.000  C
  C25      1.0000 0.55140  0.07694  0.41805  Biso   1.000  C
  C26      1.0000 0.44860  0.92306  0.58196  Biso   1.000  C
  C27      1.0000 0.67165  0.00461  0.46153  Biso   1.000  C
  C28      1.0000 0.32835  0.99539  0.53847  Biso   1.000  C
  C29      1.0000 0.29116  0.40486  0.38103  Biso   1.000  C
  C30      1.0000 0.70884  0.59514  0.61897  Biso   1.000  C
  C31      1.0000 0.08215  0.56675  0.41884  Biso   1.000  C
  C32      1.0000 0.91785  0.43325  0.58116  Biso   1.000  C
  C33      1.0000 0.16980  0.47818  0.46850  Biso   1.000  C
  C34      1.0000 0.83020  0.52182  0.53150  Biso   1.000  C
  C35      1.0000 0.03565  0.35789  0.48929  Biso   1.000  C
  C36      1.0000 0.96435  0.64211  0.51071  Biso   1.000  C
  N1       1.0000 0.18581  0.98194  0.05376  Biso   1.000  N
  N2       1.0000 0.81419  0.01806  0.94623  Biso   1.000  N
  N3       1.0000 0.57559  0.35637  0.05939  Biso   1.000  N
  N4       1.0000 0.42441  0.64363  0.94061  Biso   1.000  N
  O1       1.0000 0.63331  0.97458  0.20635  Biso   1.000  O
  O2       1.0000 0.36669  0.02542  0.79365  Biso   1.000  O
  O3       1.0000 0.55708  0.19487  0.27554  Biso   1.000  O
  O4       1.0000 0.44292  0.80513  0.72446  Biso   1.000  O
  O5       1.0000 0.30701  0.40842  0.27664  Biso   1.000  O
  O6       1.0000 0.69299  0.59158  0.72336  Biso   1.000  O
  O7       1.0000 0.37432  0.33440  0.42647  Biso   1.000  O
  O8       1.0000 0.62568  0.66561  0.57353  Biso   1.000  O
