data_image0
_cell_length_a       8.74851
_cell_length_b       9.3797
_cell_length_c       11.1416
_cell_angle_alpha    74.4767
_cell_angle_beta     86.8872
_cell_angle_gamma    70.8293

_symmetry_space_group_name_H-M    "P 1"
_symmetry_int_tables_number       1

loop_
  _symmetry_equiv_pos_as_xyz
  'x, y, z'

loop_
  _atom_site_label
  _atom_site_occupancy
  _atom_site_fract_x
  _atom_site_fract_y
  _atom_site_fract_z
  _atom_site_thermal_displace_type
  _atom_site_B_iso_or_equiv
  _atom_site_type_symbol
  Cd1      1.0000 0.36402  0.00164  0.36584  Biso   1.000  Cd
  Cd2      1.0000 0.63598  0.99835  0.63415  Biso   1.000  Cd
  H1       1.0000 0.72317  0.56796  0.49321  Biso   1.000  H
  H2       1.0000 0.27684  0.43204  0.50679  Biso   1.000  H
  H3       1.0000 0.01345  0.25649  0.45342  Biso   1.000  H
  H4       1.0000 0.98655  0.74350  0.54660  Biso   1.000  H
  H5       1.0000 0.04600  0.95689  0.22370  Biso   1.000  H
  H6       1.0000 0.95400  0.04313  0.77629  Biso   1.000  H
  H7       1.0000 0.72001  0.12256  0.24225  Biso   1.000  H
  H8       1.0000 0.28000  0.87744  0.75774  Biso   1.000  H
  H9       1.0000 0.66462  0.45561  0.31865  Biso   1.000  H
  H10      1.0000 0.33539  0.54438  0.68135  Biso   1.000  H
  H11      1.0000 0.57589  0.30541  0.36693  Biso   1.000  H
  H12      1.0000 0.42411  0.69458  0.63308  Biso   1.000  H
  H13      1.0000 0.60484  0.12999  0.87448  Biso   1.000  H
  H14      1.0000 0.39516  0.87000  0.12553  Biso   1.000  H
  H15      1.0000 0.63318  0.27486  0.02435  Biso   1.000  H
  H16      1.0000 0.36679  0.72515  0.97564  Biso   1.000  H
  H17      1.0000 0.70586  0.51879  0.95356  Biso   1.000  H
  H18      1.0000 0.29413  0.48121  0.04644  Biso   1.000  H
  H19      1.0000 0.75274  0.62572  0.73162  Biso   1.000  H
  H20      1.0000 0.24725  0.37429  0.26838  Biso   1.000  H
  C1       1.0000 0.98040  0.19876  0.39160  Biso   1.000  C
  C2       1.0000 0.01959  0.80124  0.60840  Biso   1.000  C
  C3       1.0000 0.99108  0.04478  0.27354  Biso   1.000  C
  C4       1.0000 0.00892  0.95523  0.72646  Biso   1.000  C
  C5       1.0000 0.83013  0.12655  0.28026  Biso   1.000  C
  C6       1.0000 0.16986  0.87347  0.71973  Biso   1.000  C
  C7       1.0000 0.67954  0.34009  0.38339  Biso   1.000  C
  C8       1.0000 0.32046  0.65990  0.61662  Biso   1.000  C
  C9       1.0000 0.68217  0.34853  0.51514  Biso   1.000  C
  C10      1.0000 0.31784  0.65146  0.48487  Biso   1.000  C
  C11      1.0000 0.66614  0.29617  0.71782  Biso   1.000  C
  C12      1.0000 0.33388  0.70381  0.28218  Biso   1.000  C
  C13      1.0000 0.63967  0.23536  0.84355  Biso   1.000  C
  C14      1.0000 0.36034  0.76463  0.15645  Biso   1.000  C
  C15      1.0000 0.65630  0.31757  0.92645  Biso   1.000  C
  C16      1.0000 0.34369  0.68244  0.07355  Biso   1.000  C
  C17      1.0000 0.69784  0.45561  0.88638  Biso   1.000  C
  C18      1.0000 0.30214  0.54439  0.11363  Biso   1.000  C
  C19      1.0000 0.72481  0.51705  0.76187  Biso   1.000  C
  C20      1.0000 0.27518  0.48296  0.23813  Biso   1.000  C
  C21      1.0000 0.70738  0.43516  0.67852  Biso   1.000  C
  C22      1.0000 0.29263  0.56484  0.32148  Biso   1.000  C
  N1       1.0000 0.08300  0.09041  0.34352  Biso   1.000  N
  N2       1.0000 0.91701  0.90959  0.65649  Biso   1.000  N
  N3       1.0000 0.82579  0.22390  0.35518  Biso   1.000  N
  N4       1.0000 0.17420  0.77610  0.64481  Biso   1.000  N
  N5       1.0000 0.65333  0.24505  0.61354  Biso   1.000  N
  N6       1.0000 0.34669  0.75494  0.38646  Biso   1.000  N
  N7       1.0000 0.71682  0.46417  0.54987  Biso   1.000  N
  N8       1.0000 0.28319  0.53582  0.45014  Biso   1.000  N
  Cl1      1.0000 0.33535  0.16471  0.52678  Biso   1.000  Cl
  Cl2      1.0000 0.66466  0.83530  0.47321  Biso   1.000  Cl
  Cl3      1.0000 0.45144  0.12063  0.16322  Biso   1.000  Cl
  Cl4      1.0000 0.54856  0.87939  0.83679  Biso   1.000  Cl
