data_image0
_cell_length_a       8.35518
_cell_length_b       9.43886
_cell_length_c       9.7656
_cell_angle_alpha    81.2592
_cell_angle_beta     84.448
_cell_angle_gamma    65.002

_symmetry_space_group_name_H-M    "P 1"
_symmetry_int_tables_number       1

loop_
  _symmetry_equiv_pos_as_xyz
  'x, y, z'

loop_
  _atom_site_label
  _atom_site_occupancy
  _atom_site_fract_x
  _atom_site_fract_y
  _atom_site_fract_z
  _atom_site_thermal_displace_type
  _atom_site_B_iso_or_equiv
  _atom_site_type_symbol
  Cd1      1.0000 0.55677  0.98407  0.80861  Biso   1.000  Cd
  Cd2      1.0000 0.44322  0.01593  0.19139  Biso   1.000  Cd
  H1       1.0000 0.37948  0.53255  0.68001  Biso   1.000  H
  H2       1.0000 0.62052  0.46745  0.31999  Biso   1.000  H
  H3       1.0000 0.97154  0.99545  0.79108  Biso   1.000  H
  H4       1.0000 0.02846  0.00455  0.20892  Biso   1.000  H
  H5       1.0000 0.80898  0.74926  0.54763  Biso   1.000  H
  H6       1.0000 0.19102  0.25074  0.45237  Biso   1.000  H
  H7       1.0000 0.15400  0.70692  0.46675  Biso   1.000  H
  H8       1.0000 0.84600  0.29308  0.53325  Biso   1.000  H
  H9       1.0000 0.25839  0.97921  0.65465  Biso   1.000  H
  H10      1.0000 0.74160  0.02079  0.34535  Biso   1.000  H
  H11      1.0000 0.33083  0.86550  0.51360  Biso   1.000  H
  H12      1.0000 0.66917  0.13450  0.48640  Biso   1.000  H
  H13      1.0000 0.62475  0.25391  0.83454  Biso   1.000  H
  H14      1.0000 0.37525  0.74609  0.16546  Biso   1.000  H
  H15      1.0000 0.86026  0.17555  0.00457  Biso   1.000  H
  H16      1.0000 0.13974  0.82445  0.99543  Biso   1.000  H
  H17      1.0000 0.93842  0.37464  0.08393  Biso   1.000  H
  H18      1.0000 0.06158  0.62537  0.91607  Biso   1.000  H
  H19      1.0000 0.78891  0.65902  0.99089  Biso   1.000  H
  H20      1.0000 0.21109  0.34098  0.00911  Biso   1.000  H
  C1       1.0000 0.97094  0.92277  0.71518  Biso   1.000  C
  C2       1.0000 0.02907  0.07722  0.28482  Biso   1.000  C
  C3       1.0000 0.89471  0.79189  0.58830  Biso   1.000  C
  C4       1.0000 0.10529  0.20811  0.41170  Biso   1.000  C
  C5       1.0000 0.06481  0.76986  0.54693  Biso   1.000  C
  C6       1.0000 0.93519  0.23014  0.45307  Biso   1.000  C
  C7       1.0000 0.28004  0.86604  0.62204  Biso   1.000  C
  C8       1.0000 0.71996  0.13396  0.37796  Biso   1.000  C
  C9       1.0000 0.41578  0.73691  0.71110  Biso   1.000  C
  C10      1.0000 0.58422  0.26309  0.28890  Biso   1.000  C
  C11      1.0000 0.58402  0.49836  0.81312  Biso   1.000  C
  C12      1.0000 0.41598  0.50164  0.18688  Biso   1.000  C
  C13      1.0000 0.66483  0.33961  0.86552  Biso   1.000  C
  C14      1.0000 0.33517  0.66039  0.13448  Biso   1.000  C
  C15      1.0000 0.79459  0.29852  0.96149  Biso   1.000  C
  C16      1.0000 0.20542  0.70148  0.03851  Biso   1.000  C
  C17      1.0000 0.83916  0.41192  0.00590  Biso   1.000  C
  C18      1.0000 0.16084  0.58808  0.99410  Biso   1.000  C
  C19      1.0000 0.75859  0.57038  0.95348  Biso   1.000  C
  C20      1.0000 0.24141  0.42962  0.04652  Biso   1.000  C
  C21      1.0000 0.63143  0.61249  0.85398  Biso   1.000  C
  C22      1.0000 0.36857  0.38751  0.14602  Biso   1.000  C
  N1       1.0000 0.83779  0.88798  0.69270  Biso   1.000  N
  N2       1.0000 0.16221  0.11202  0.30730  Biso   1.000  N
  N3       1.0000 0.11120  0.85371  0.62835  Biso   1.000  N
  N4       1.0000 0.88880  0.14628  0.37165  Biso   1.000  N
  N5       1.0000 0.52523  0.75943  0.78666  Biso   1.000  N
  N6       1.0000 0.47477  0.24057  0.21334  Biso   1.000  N
  N7       1.0000 0.44797  0.58149  0.72231  Biso   1.000  N
  N8       1.0000 0.55203  0.41851  0.27769  Biso   1.000  N
  Cl1      1.0000 0.73146  0.94851  0.02412  Biso   1.000  Cl
  Cl2      1.0000 0.26854  0.05149  0.97588  Biso   1.000  Cl
  Cl3      1.0000 0.41408  0.23562  0.64936  Biso   1.000  Cl
  Cl4      1.0000 0.58592  0.76439  0.35064  Biso   1.000  Cl
