data_image0
_cell_length_a       8.21423
_cell_length_b       10.1333
_cell_length_c       12.6449
_cell_angle_alpha    109.766
_cell_angle_beta     102.172
_cell_angle_gamma    94.6174

_symmetry_space_group_name_H-M    "P 1"
_symmetry_int_tables_number       1

loop_
  _symmetry_equiv_pos_as_xyz
  'x, y, z'

loop_
  _atom_site_label
  _atom_site_occupancy
  _atom_site_fract_x
  _atom_site_fract_y
  _atom_site_fract_z
  _atom_site_thermal_displace_type
  _atom_site_B_iso_or_equiv
  _atom_site_type_symbol
  Cd1      1.0000 0.35714  0.39205  0.30210  Biso   1.000  Cd
  Cd2      1.0000 0.64286  0.60796  0.69790  Biso   1.000  Cd
  H1       1.0000 0.62498  0.16347  0.94085  Biso   1.000  H
  H2       1.0000 0.37502  0.83651  0.05914  Biso   1.000  H
  H3       1.0000 0.70176  0.44208  0.44460  Biso   1.000  H
  H4       1.0000 0.29825  0.55793  0.55540  Biso   1.000  H
  H5       1.0000 0.65062  0.58059  0.43525  Biso   1.000  H
  H6       1.0000 0.34937  0.41941  0.56475  Biso   1.000  H
  H7       1.0000 0.92217  0.37852  0.32198  Biso   1.000  H
  H8       1.0000 0.07783  0.62148  0.67802  Biso   1.000  H
  H9       1.0000 0.11345  0.12253  0.05258  Biso   1.000  H
  H10      1.0000 0.88655  0.87746  0.94742  Biso   1.000  H
  H11      1.0000 0.61527  0.21040  0.25329  Biso   1.000  H
  H12      1.0000 0.38473  0.78960  0.74672  Biso   1.000  H
  H13      1.0000 0.59316  0.05134  0.13396  Biso   1.000  H
  H14      1.0000 0.40684  0.94866  0.86604  Biso   1.000  H
  H15      1.0000 0.17073  0.48891  0.08755  Biso   1.000  H
  H16      1.0000 0.82929  0.51111  0.91247  Biso   1.000  H
  H17      1.0000 0.09496  0.53011  0.89979  Biso   1.000  H
  H18      1.0000 0.90505  0.46990  0.10022  Biso   1.000  H
  H19      1.0000 0.24101  0.43035  0.74561  Biso   1.000  H
  H20      1.0000 0.75899  0.56964  0.25439  Biso   1.000  H
  H21      1.0000 0.46122  0.28087  0.76858  Biso   1.000  H
  H22      1.0000 0.53877  0.71912  0.23141  Biso   1.000  H
  H23      1.0000 0.14743  0.79128  0.57731  Biso   1.000  H
  H24      1.0000 0.85258  0.20873  0.42270  Biso   1.000  H
  H25      1.0000 0.14047  0.05143  0.67021  Biso   1.000  H
  H26      1.0000 0.85954  0.94858  0.32979  Biso   1.000  H
  H27      1.0000 0.23022  0.21784  0.57972  Biso   1.000  H
  H28      1.0000 0.76978  0.78217  0.42028  Biso   1.000  H
  H29      1.0000 0.34217  0.87160  0.31134  Biso   1.000  H
  H30      1.0000 0.65783  0.12840  0.68865  Biso   1.000  H
  C1       1.0000 0.93538  0.29648  0.24394  Biso   1.000  C
  C2       1.0000 0.06462  0.70351  0.75607  Biso   1.000  C
  C3       1.0000 0.02783  0.16617  0.10498  Biso   1.000  C
  C4       1.0000 0.97217  0.83382  0.89503  Biso   1.000  C
  C5       1.0000 0.63232  0.16695  0.16537  Biso   1.000  C
  C6       1.0000 0.36768  0.83305  0.83463  Biso   1.000  C
  C7       1.0000 0.52846  0.23165  0.09016  Biso   1.000  C
  C8       1.0000 0.47154  0.76835  0.90984  Biso   1.000  C
  C9       1.0000 0.34773  0.35159  0.02808  Biso   1.000  C
  C10      1.0000 0.65227  0.64841  0.97192  Biso   1.000  C
  C11      1.0000 0.22669  0.43866  0.01621  Biso   1.000  C
  C12      1.0000 0.77333  0.56135  0.98380  Biso   1.000  C
  C13      1.0000 0.18831  0.46255  0.91230  Biso   1.000  C
  C14      1.0000 0.81170  0.53746  0.08770  Biso   1.000  C
  C15      1.0000 0.27010  0.40444  0.82373  Biso   1.000  C
  C16      1.0000 0.72991  0.59555  0.17627  Biso   1.000  C
  C17      1.0000 0.39273  0.31919  0.83504  Biso   1.000  C
  C18      1.0000 0.60726  0.68081  0.16497  Biso   1.000  C
  C19      1.0000 0.42784  0.29232  0.93798  Biso   1.000  C
  C20      1.0000 0.57216  0.70767  0.06202  Biso   1.000  C
  C21      1.0000 0.26367  0.66257  0.39020  Biso   1.000  C
  C22      1.0000 0.73633  0.33743  0.60980  Biso   1.000  C
  C23      1.0000 0.24869  0.81595  0.44042  Biso   1.000  C
  C24      1.0000 0.75132  0.18406  0.55957  Biso   1.000  C
  C25      1.0000 0.19069  0.86711  0.54118  Biso   1.000  C
  C26      1.0000 0.80932  0.13290  0.45882  Biso   1.000  C
  C27      1.0000 0.18634  0.01157  0.59218  Biso   1.000  C
  C28      1.0000 0.81367  0.98843  0.40782  Biso   1.000  C
  C29      1.0000 0.23660  0.10534  0.54144  Biso   1.000  C
  C30      1.0000 0.76340  0.89467  0.45856  Biso   1.000  C
  C31      1.0000 0.29099  0.05524  0.43913  Biso   1.000  C
  C32      1.0000 0.70901  0.94475  0.56086  Biso   1.000  C
  C33      1.0000 0.29760  0.91046  0.38972  Biso   1.000  C
  C34      1.0000 0.70239  0.08954  0.61028  Biso   1.000  C
  C35      1.0000 0.33927  0.15308  0.38034  Biso   1.000  C
  C36      1.0000 0.66072  0.84693  0.61966  Biso   1.000  C
  N1       1.0000 0.07508  0.28157  0.20603  Biso   1.000  N
  N2       1.0000 0.92492  0.71843  0.79398  Biso   1.000  N
  N3       1.0000 0.86624  0.10882  0.07790  Biso   1.000  N
  N4       1.0000 0.13377  0.89117  0.92210  Biso   1.000  N
  N5       1.0000 0.81000  0.19251  0.16796  Biso   1.000  N
  N6       1.0000 0.19000  0.80748  0.83204  Biso   1.000  N
  N7       1.0000 0.41455  0.31196  0.12132  Biso   1.000  N
  N8       1.0000 0.58545  0.68804  0.87868  Biso   1.000  N
  N9       1.0000 0.54027  0.21543  0.98021  Biso   1.000  N
  N10      1.0000 0.45972  0.78456  0.01979  Biso   1.000  N
  O1       1.0000 0.33372  0.62218  0.30608  Biso   1.000  O
  O2       1.0000 0.66628  0.37782  0.69392  Biso   1.000  O
  O3       1.0000 0.20877  0.57662  0.43399  Biso   1.000  O
  O4       1.0000 0.79124  0.42338  0.56601  Biso   1.000  O
  O5       1.0000 0.36563  0.10372  0.28103  Biso   1.000  O
  O6       1.0000 0.63435  0.89627  0.71895  Biso   1.000  O
  O7       1.0000 0.34788  0.28825  0.43556  Biso   1.000  O
  O8       1.0000 0.65210  0.71175  0.56443  Biso   1.000  O
  O9       1.0000 0.65065  0.48085  0.38422  Biso   1.000  O
  O10      1.0000 0.34935  0.51916  0.61578  Biso   1.000  O
