data_image0
_cell_length_a       15.7642
_cell_length_b       15.7643
_cell_length_c       16.1372
_cell_angle_alpha    105.347
_cell_angle_beta     105.348
_cell_angle_gamma    117.236

_symmetry_space_group_name_H-M    "P 1"
_symmetry_int_tables_number       1

loop_
  _symmetry_equiv_pos_as_xyz
  'x, y, z'

loop_
  _atom_site_label
  _atom_site_occupancy
  _atom_site_fract_x
  _atom_site_fract_y
  _atom_site_fract_z
  _atom_site_thermal_displace_type
  _atom_site_B_iso_or_equiv
  _atom_site_type_symbol
  Zn1      1.0000 0.14257  0.71990  0.55776  Biso   1.000  Zn
  Zn2      1.0000 0.41508  0.83787  0.55775  Biso   1.000  Zn
  Zn3      1.0000 0.96990  0.89257  0.05775  Biso   1.000  Zn
  Zn4      1.0000 0.08787  0.16508  0.05775  Biso   1.000  Zn
  Zn5      1.0000 0.28877  0.99402  0.66680  Biso   1.000  Zn
  Zn6      1.0000 0.37784  0.67245  0.66660  Biso   1.000  Zn
  Zn7      1.0000 0.24402  0.03877  0.16680  Biso   1.000  Zn
  Zn8      1.0000 0.92245  0.12784  0.16659  Biso   1.000  Zn
  Zn9      1.0000 0.10798  0.49471  0.41335  Biso   1.000  Zn
  Zn10     1.0000 0.30547  0.91891  0.41343  Biso   1.000  Zn
  Zn11     1.0000 0.74471  0.85798  0.91335  Biso   1.000  Zn
  Zn12     1.0000 0.16891  0.05548  0.91343  Biso   1.000  Zn
  H1       1.0000 0.50960  0.21224  0.81631  Biso   1.000  H
  H2       1.0000 0.30626  0.60334  0.81622  Biso   1.000  H
  H3       1.0000 0.46224  0.25961  0.31631  Biso   1.000  H
  H4       1.0000 0.85334  0.05627  0.31621  Biso   1.000  H
  H5       1.0000 0.68703  0.26851  0.93699  Biso   1.000  H
  H6       1.0000 0.24993  0.66798  0.93723  Biso   1.000  H
  H7       1.0000 0.51851  0.43703  0.43699  Biso   1.000  H
  H8       1.0000 0.91797  0.99993  0.43723  Biso   1.000  H
  H9       1.0000 0.71000  0.12365  0.95416  Biso   1.000  H
  H10      1.0000 0.24439  0.83018  0.95458  Biso   1.000  H
  H11      1.0000 0.37364  0.46000  0.45415  Biso   1.000  H
  H12      1.0000 0.08017  0.99439  0.45458  Biso   1.000  H
  H13      1.0000 0.55730  0.93465  0.85255  Biso   1.000  H
  H14      1.0000 0.29529  0.91747  0.85281  Biso   1.000  H
  H15      1.0000 0.18465  0.30730  0.35255  Biso   1.000  H
  H16      1.0000 0.16747  0.04529  0.35281  Biso   1.000  H
  H17      1.0000 0.15184  0.38061  0.25521  Biso   1.000  H
  H18      1.0000 0.10354  0.87516  0.25535  Biso   1.000  H
  H19      1.0000 0.63061  0.90185  0.75521  Biso   1.000  H
  H20      1.0000 0.12516  0.85354  0.75535  Biso   1.000  H
  H21      1.0000 0.25162  0.43411  0.16144  Biso   1.000  H
  H22      1.0000 0.91003  0.72811  0.16186  Biso   1.000  H
  H23      1.0000 0.68411  0.00163  0.66144  Biso   1.000  H
  H24      1.0000 0.97812  0.66003  0.66186  Biso   1.000  H
  H25      1.0000 0.33542  0.62388  0.18088  Biso   1.000  H
  H26      1.0000 0.84569  0.55768  0.18112  Biso   1.000  H
  H27      1.0000 0.87388  0.08542  0.68088  Biso   1.000  H
  H28      1.0000 0.80768  0.59569  0.68112  Biso   1.000  H
  H29      1.0000 0.31226  0.74741  0.29141  Biso   1.000  H
  H30      1.0000 0.97930  0.54438  0.29134  Biso   1.000  H
  H31      1.0000 0.99741  0.06226  0.79140  Biso   1.000  H
  H32      1.0000 0.79439  0.72931  0.79134  Biso   1.000  H
  H33      1.0000 0.33678  0.25420  0.58443  Biso   1.000  H
  H34      1.0000 0.24758  0.33003  0.58414  Biso   1.000  H
  H35      1.0000 0.50420  0.08678  0.08443  Biso   1.000  H
  H36      1.0000 0.58003  0.99757  0.08414  Biso   1.000  H
  H37      1.0000 0.34528  0.21048  0.47431  Biso   1.000  H
  H38      1.0000 0.12902  0.26367  0.47402  Biso   1.000  H
  H39      1.0000 0.46048  0.09528  0.97431  Biso   1.000  H
  H40      1.0000 0.51367  0.87902  0.97402  Biso   1.000  H
  H41      1.0000 0.45615  0.26939  0.58822  Biso   1.000  H
  H42      1.0000 0.13197  0.31854  0.58794  Biso   1.000  H
  H43      1.0000 0.51939  0.20615  0.08822  Biso   1.000  H
  H44      1.0000 0.56854  0.88196  0.08794  Biso   1.000  H
  H45      1.0000 0.05073  0.53736  0.72488  Biso   1.000  H
  H46      1.0000 0.67405  0.18743  0.72489  Biso   1.000  H
  H47      1.0000 0.78736  0.80074  0.22487  Biso   1.000  H
  H48      1.0000 0.43743  0.42405  0.22489  Biso   1.000  H
  H49      1.0000 0.04037  0.42107  0.65251  Biso   1.000  H
  H50      1.0000 0.61213  0.23147  0.65257  Biso   1.000  H
  H51      1.0000 0.67107  0.79037  0.15251  Biso   1.000  H
  H52      1.0000 0.48147  0.36212  0.15257  Biso   1.000  H
  H53      1.0000 0.93091  0.43240  0.61778  Biso   1.000  H
  H54      1.0000 0.68683  0.18540  0.61777  Biso   1.000  H
  H55      1.0000 0.68240  0.68091  0.11778  Biso   1.000  H
  H56      1.0000 0.43540  0.43683  0.11777  Biso   1.000  H
  H57      1.0000 0.87477  0.75955  0.48625  Biso   1.000  H
  H58      1.0000 0.61133  0.72688  0.48582  Biso   1.000  H
  H59      1.0000 0.00956  0.62477  0.98626  Biso   1.000  H
  H60      1.0000 0.97688  0.36133  0.98581  Biso   1.000  H
  H61      1.0000 0.92298  0.82289  0.41689  Biso   1.000  H
  H62      1.0000 0.49397  0.59416  0.41659  Biso   1.000  H
  H63      1.0000 0.07289  0.67298  0.91690  Biso   1.000  H
  H64      1.0000 0.84416  0.24397  0.91659  Biso   1.000  H
  H65      1.0000 0.95689  0.90294  0.53677  Biso   1.000  H
  H66      1.0000 0.58000  0.63409  0.53647  Biso   1.000  H
  H67      1.0000 0.15294  0.70689  0.03678  Biso   1.000  H
  H68      1.0000 0.88409  0.33000  0.03647  Biso   1.000  H
  H69      1.0000 0.17007  0.20242  0.70898  Biso   1.000  H
  H70      1.0000 0.53898  0.50673  0.70922  Biso   1.000  H
  H71      1.0000 0.45242  0.92007  0.20899  Biso   1.000  H
  H72      1.0000 0.75673  0.28898  0.20923  Biso   1.000  H
  H73      1.0000 0.14766  0.08813  0.61916  Biso   1.000  H
  H74      1.0000 0.47151  0.53091  0.61915  Biso   1.000  H
  H75      1.0000 0.33813  0.89766  0.11917  Biso   1.000  H
  H76      1.0000 0.78091  0.22151  0.11916  Biso   1.000  H
  H77      1.0000 0.27958  0.19846  0.69893  Biso   1.000  H
  H78      1.0000 0.41947  0.50075  0.69916  Biso   1.000  H
  H79      1.0000 0.44846  0.02958  0.19893  Biso   1.000  H
  H80      1.0000 0.75075  0.16947  0.19916  Biso   1.000  H
  C1       1.0000 0.52435  0.15404  0.82756  Biso   1.000  C
  C2       1.0000 0.30291  0.67290  0.82756  Biso   1.000  C
  C3       1.0000 0.40403  0.27435  0.32756  Biso   1.000  C
  C4       1.0000 0.92290  0.05291  0.32755  Biso   1.000  C
  C5       1.0000 0.62219  0.18414  0.89375  Biso   1.000  C
  C6       1.0000 0.27148  0.70911  0.89394  Biso   1.000  C
  C7       1.0000 0.43413  0.37220  0.39375  Biso   1.000  C
  C8       1.0000 0.95910  0.02148  0.39393  Biso   1.000  C
  C9       1.0000 0.63490  0.10447  0.90341  Biso   1.000  C
  C10      1.0000 0.26857  0.79851  0.90370  Biso   1.000  C
  C11      1.0000 0.35447  0.38490  0.40341  Biso   1.000  C
  C12      1.0000 0.04851  0.01857  0.40370  Biso   1.000  C
  C13      1.0000 0.54947  0.99815  0.84625  Biso   1.000  C
  C14      1.0000 0.29675  0.84763  0.84644  Biso   1.000  C
  C15      1.0000 0.24815  0.29947  0.34624  Biso   1.000  C
  C16      1.0000 0.09763  0.04675  0.34644  Biso   1.000  C
  C17      1.0000 0.45405  0.97453  0.78133  Biso   1.000  C
  C18      1.0000 0.32705  0.80624  0.78134  Biso   1.000  C
  C19      1.0000 0.22453  0.20404  0.28132  Biso   1.000  C
  C20      1.0000 0.05624  0.07705  0.28134  Biso   1.000  C
  C21      1.0000 0.35784  0.85775  0.71599  Biso   1.000  C
  C22      1.0000 0.10775  0.10784  0.21599  Biso   1.000  C
  C23      1.0000 0.18918  0.46094  0.26086  Biso   1.000  C
  C24      1.0000 0.07187  0.80046  0.26100  Biso   1.000  C
  C25      1.0000 0.71094  0.93918  0.76086  Biso   1.000  C
  C26      1.0000 0.05047  0.82187  0.76101  Biso   1.000  C
  C27      1.0000 0.24498  0.49185  0.20879  Biso   1.000  C
  C28      1.0000 0.96400  0.71758  0.20904  Biso   1.000  C
  C29      1.0000 0.74185  0.99498  0.70879  Biso   1.000  C
  C30      1.0000 0.96758  0.71400  0.70903  Biso   1.000  C
  C31      1.0000 0.29030  0.59627  0.21995  Biso   1.000  C
  C32      1.0000 0.92983  0.62426  0.22011  Biso   1.000  C
  C33      1.0000 0.84627  0.04031  0.71994  Biso   1.000  C
  C34      1.0000 0.87426  0.67984  0.72011  Biso   1.000  C
  C35      1.0000 0.27753  0.66545  0.28122  Biso   1.000  C
  C36      1.0000 0.00383  0.61620  0.28122  Biso   1.000  C
  C37      1.0000 0.91545  0.02754  0.78121  Biso   1.000  C
  C38      1.0000 0.86621  0.75383  0.78122  Biso   1.000  C
  C39      1.0000 0.21958  0.62778  0.33036  Biso   1.000  C
  C40      1.0000 0.11089  0.70296  0.33036  Biso   1.000  C
  C41      1.0000 0.87778  0.96958  0.83036  Biso   1.000  C
  C42      1.0000 0.95296  0.86089  0.83036  Biso   1.000  C
  C43      1.0000 0.19842  0.69855  0.39679  Biso   1.000  C
  C44      1.0000 0.94855  0.94842  0.89678  Biso   1.000  C
  C45      1.0000 0.32966  0.10892  0.54549  Biso   1.000  C
  C46      1.0000 0.21569  0.43636  0.54523  Biso   1.000  C
  C47      1.0000 0.35892  0.07966  0.04550  Biso   1.000  C
  C48      1.0000 0.68636  0.96569  0.04523  Biso   1.000  C
  C49      1.0000 0.36871  0.21697  0.54697  Biso   1.000  C
  C50      1.0000 0.17818  0.32979  0.54670  Biso   1.000  C
  C51      1.0000 0.46697  0.11871  0.04697  Biso   1.000  C
  C52      1.0000 0.57979  0.92818  0.04670  Biso   1.000  C
  C53      1.0000 0.05843  0.53071  0.59150  Biso   1.000  C
  C54      1.0000 0.53302  0.06083  0.59151  Biso   1.000  C
  C55      1.0000 0.78072  0.80843  0.09150  Biso   1.000  C
  C56      1.0000 0.31082  0.28303  0.09152  Biso   1.000  C
  C57      1.0000 0.01862  0.47779  0.65153  Biso   1.000  C
  C58      1.0000 0.63285  0.17373  0.65154  Biso   1.000  C
  C59      1.0000 0.72779  0.76862  0.15153  Biso   1.000  C
  C60      1.0000 0.42373  0.38284  0.15154  Biso   1.000  C
  C61      1.0000 0.04197  0.82873  0.52476  Biso   1.000  C
  C62      1.0000 0.48267  0.69601  0.52448  Biso   1.000  C
  C63      1.0000 0.07873  0.79197  0.02477  Biso   1.000  C
  C64      1.0000 0.94602  0.23267  0.02448  Biso   1.000  C
  C65      1.0000 0.94252  0.82836  0.48960  Biso   1.000  C
  C66      1.0000 0.54706  0.66139  0.48927  Biso   1.000  C
  C67      1.0000 0.07836  0.69252  0.98961  Biso   1.000  C
  C68      1.0000 0.91139  0.29706  0.98926  Biso   1.000  C
  C69      1.0000 0.20080  0.10177  0.76096  Biso   1.000  C
  C70      1.0000 0.56022  0.65933  0.76080  Biso   1.000  C
  C71      1.0000 0.35176  0.95080  0.26097  Biso   1.000  C
  C72      1.0000 0.90933  0.31022  0.26080  Biso   1.000  C
  C73      1.0000 0.19930  0.15202  0.69337  Biso   1.000  C
  C74      1.0000 0.49413  0.54145  0.69345  Biso   1.000  C
  C75      1.0000 0.40202  0.94929  0.19337  Biso   1.000  C
  C76      1.0000 0.79145  0.24413  0.19345  Biso   1.000  C
  N1       1.0000 0.44178  0.05093  0.77307  Biso   1.000  N
  N2       1.0000 0.33096  0.72151  0.77300  Biso   1.000  N
  N3       1.0000 0.30093  0.19178  0.27307  Biso   1.000  N
  N4       1.0000 0.97151  0.08096  0.27299  Biso   1.000  N
  N5       1.0000 0.17714  0.52772  0.32032  Biso   1.000  N
  N6       1.0000 0.14332  0.79302  0.32035  Biso   1.000  N
  N7       1.0000 0.77772  0.92715  0.82031  Biso   1.000  N
  N8       1.0000 0.04302  0.89332  0.82035  Biso   1.000  N
  O1       1.0000 0.27191  0.85655  0.66030  Biso   1.000  O
  O2       1.0000 0.38790  0.80323  0.66006  Biso   1.000  O
  O3       1.0000 0.10655  0.02191  0.16030  Biso   1.000  O
  O4       1.0000 0.05323  0.13790  0.16006  Biso   1.000  O
  O5       1.0000 0.16178  0.65044  0.45262  Biso   1.000  O
  O6       1.0000 0.29079  0.80239  0.45273  Biso   1.000  O
  O7       1.0000 0.90044  0.91178  0.95262  Biso   1.000  O
  O8       1.0000 0.05239  0.04079  0.95272  Biso   1.000  O
  O9       1.0000 0.27321  0.02649  0.46467  Biso   1.000  O
  O10      1.0000 0.19117  0.43803  0.46442  Biso   1.000  O
  O11      1.0000 0.27648  0.02321  0.96467  Biso   1.000  O
  O12      1.0000 0.68803  0.94117  0.96441  Biso   1.000  O
  O13      1.0000 0.35620  0.10923  0.62757  Biso   1.000  O
  O14      1.0000 0.27132  0.51806  0.62733  Biso   1.000  O
  O15      1.0000 0.35923  0.10620  0.12757  Biso   1.000  O
  O16      1.0000 0.76806  0.02132  0.12733  Biso   1.000  O
  O17      1.0000 0.05139  0.47357  0.51523  Biso   1.000  O
  O18      1.0000 0.46386  0.04184  0.51530  Biso   1.000  O
  O19      1.0000 0.72357  0.80139  0.01522  Biso   1.000  O
  O20      1.0000 0.29183  0.21386  0.01530  Biso   1.000  O
  O21      1.0000 0.09471  0.63016  0.62305  Biso   1.000  O
  O22      1.0000 0.52826  0.99286  0.62303  Biso   1.000  O
  O23      1.0000 0.88016  0.84471  0.12304  Biso   1.000  O
  O24      1.0000 0.24286  0.27827  0.12303  Biso   1.000  O
  O25      1.0000 0.13193  0.91517  0.55639  Biso   1.000  O
  O26      1.0000 0.42429  0.64103  0.55601  Biso   1.000  O
  O27      1.0000 0.16517  0.88193  0.05639  Biso   1.000  O
  O28      1.0000 0.89103  0.17429  0.05601  Biso   1.000  O
  O29      1.0000 0.02622  0.73953  0.51797  Biso   1.000  O
  O30      1.0000 0.49160  0.77847  0.51781  Biso   1.000  O
  O31      1.0000 0.98954  0.77623  0.01797  Biso   1.000  O
  O32      1.0000 0.02847  0.24161  0.01781  Biso   1.000  O
  O33      1.0000 0.24372  0.05002  0.76266  Biso   1.000  O
  O34      1.0000 0.51897  0.71274  0.76235  Biso   1.000  O
  O35      1.0000 0.30002  0.99371  0.26266  Biso   1.000  O
  O36      1.0000 0.96275  0.26897  0.26235  Biso   1.000  O
  O37      1.0000 0.15765  0.11332  0.81568  Biso   1.000  O
  O38      1.0000 0.65806  0.70250  0.81546  Biso   1.000  O
  O39      1.0000 0.36332  0.90765  0.31568  Biso   1.000  O
  O40      1.0000 0.95250  0.40806  0.31546  Biso   1.000  O
