data_image0
_cell_length_a       4.91679
_cell_length_b       7.19818
_cell_length_c       14.1646
_cell_angle_alpha    96.7712
_cell_angle_beta     92.2499
_cell_angle_gamma    99.8012

_symmetry_space_group_name_H-M    "P 1"
_symmetry_int_tables_number       1

loop_
  _symmetry_equiv_pos_as_xyz
  'x, y, z'

loop_
  _atom_site_label
  _atom_site_occupancy
  _atom_site_fract_x
  _atom_site_fract_y
  _atom_site_fract_z
  _atom_site_thermal_displace_type
  _atom_site_B_iso_or_equiv
  _atom_site_type_symbol
  Co1      1.0000 0.99999  0.99999  0.00000  Biso   1.000  Co
  H1       1.0000 0.21828  0.31214  0.30876  Biso   1.000  H
  H2       1.0000 0.78172  0.68787  0.69123  Biso   1.000  H
  H3       1.0000 0.17254  0.72132  0.08626  Biso   1.000  H
  H4       1.0000 0.82745  0.27867  0.91374  Biso   1.000  H
  H5       1.0000 0.44426  0.88390  0.08932  Biso   1.000  H
  H6       1.0000 0.55574  0.11610  0.91068  Biso   1.000  H
  H7       1.0000 0.25512  0.25035  0.12728  Biso   1.000  H
  H8       1.0000 0.74486  0.74965  0.87272  Biso   1.000  H
  H9       1.0000 0.46340  0.26071  0.04279  Biso   1.000  H
  H10      1.0000 0.53661  0.73929  0.95721  Biso   1.000  H
  H11      1.0000 0.21509  0.08447  0.43393  Biso   1.000  H
  H12      1.0000 0.78493  0.91553  0.56607  Biso   1.000  H
  H13      1.0000 0.63139  0.84780  0.27768  Biso   1.000  H
  H14      1.0000 0.36863  0.15221  0.72232  Biso   1.000  H
  H15      1.0000 0.45133  0.03521  0.26164  Biso   1.000  H
  H16      1.0000 0.54866  0.96477  0.73838  Biso   1.000  H
  H17      1.0000 0.75730  0.54636  0.47070  Biso   1.000  H
  H18      1.0000 0.24271  0.45363  0.52931  Biso   1.000  H
  H19      1.0000 0.58138  0.72787  0.44152  Biso   1.000  H
  H20      1.0000 0.41861  0.27212  0.55847  Biso   1.000  H
  C1       1.0000 0.01414  0.00005  0.44611  Biso   1.000  C
  C2       1.0000 0.98587  0.99994  0.55389  Biso   1.000  C
  C3       1.0000 0.65576  0.00327  0.28114  Biso   1.000  C
  C4       1.0000 0.34424  0.99673  0.71886  Biso   1.000  C
  C5       1.0000 0.84965  0.05942  0.20470  Biso   1.000  C
  C6       1.0000 0.15032  0.94058  0.79528  Biso   1.000  C
  C7       1.0000 0.71886  0.63099  0.41363  Biso   1.000  C
  C8       1.0000 0.28113  0.36900  0.58637  Biso   1.000  C
  C9       1.0000 0.56010  0.50009  0.33076  Biso   1.000  C
  C10      1.0000 0.43990  0.49991  0.66923  Biso   1.000  C
  S1       1.0000 0.73659  0.11594  0.40152  Biso   1.000  S
  S2       1.0000 0.26340  0.88407  0.59849  Biso   1.000  S
  S3       1.0000 0.03802  0.77044  0.38440  Biso   1.000  S
  S4       1.0000 0.96199  0.22955  0.61560  Biso   1.000  S
  O1       1.0000 0.75954  0.98725  0.11920  Biso   1.000  O
  O2       1.0000 0.24045  0.01276  0.88082  Biso   1.000  O
  O3       1.0000 0.08384  0.16292  0.22352  Biso   1.000  O
  O4       1.0000 0.91613  0.83714  0.77647  Biso   1.000  O
  O5       1.0000 0.33103  0.40372  0.36201  Biso   1.000  O
  O6       1.0000 0.66898  0.59627  0.63799  Biso   1.000  O
  O7       1.0000 0.62568  0.48445  0.24776  Biso   1.000  O
  O8       1.0000 0.37435  0.51553  0.75223  Biso   1.000  O
  O9       1.0000 0.26345  0.82285  0.05258  Biso   1.000  O
  O10      1.0000 0.73654  0.17715  0.94742  Biso   1.000  O
  O11      1.0000 0.26842  0.25133  0.05737  Biso   1.000  O
  O12      1.0000 0.73158  0.74867  0.94262  Biso   1.000  O
