data_image0
_cell_length_a       8.95363
_cell_length_b       8.95384
_cell_length_c       12.2043
_cell_angle_alpha    97.1343
_cell_angle_beta     97.1347
_cell_angle_gamma    99.9827

_symmetry_space_group_name_H-M    "P 1"
_symmetry_int_tables_number       1

loop_
  _symmetry_equiv_pos_as_xyz
  'x, y, z'

loop_
  _atom_site_label
  _atom_site_occupancy
  _atom_site_fract_x
  _atom_site_fract_y
  _atom_site_fract_z
  _atom_site_thermal_displace_type
  _atom_site_B_iso_or_equiv
  _atom_site_type_symbol
  Ag1      1.0000 0.24975  0.75024  0.75001  Biso   1.000  Ag
  Ag2      1.0000 0.75022  0.24978  0.25001  Biso   1.000  Ag
  H1       1.0000 0.41670  0.85412  0.23197  Biso   1.000  H
  H2       1.0000 0.14589  0.58329  0.26804  Biso   1.000  H
  H3       1.0000 0.58328  0.14589  0.76802  Biso   1.000  H
  H4       1.0000 0.85412  0.41668  0.73199  Biso   1.000  H
  H5       1.0000 0.25593  0.93776  0.25452  Biso   1.000  H
  H6       1.0000 0.06226  0.74400  0.24548  Biso   1.000  H
  H7       1.0000 0.74405  0.06225  0.74548  Biso   1.000  H
  H8       1.0000 0.93774  0.25594  0.75451  Biso   1.000  H
  H9       1.0000 0.43704  0.05719  0.26262  Biso   1.000  H
  H10      1.0000 0.94288  0.56294  0.23738  Biso   1.000  H
  H11      1.0000 0.56294  0.94284  0.73738  Biso   1.000  H
  H12      1.0000 0.05716  0.43701  0.76262  Biso   1.000  H
  H13      1.0000 0.32288  0.20867  0.08990  Biso   1.000  H
  H14      1.0000 0.79134  0.67711  0.41010  Biso   1.000  H
  H15      1.0000 0.67712  0.79135  0.91012  Biso   1.000  H
  H16      1.0000 0.20866  0.32286  0.58990  Biso   1.000  H
  H17      1.0000 0.24575  0.05458  0.75536  Biso   1.000  H
  H18      1.0000 0.94541  0.75422  0.74463  Biso   1.000  H
  H19      1.0000 0.75423  0.94544  0.24465  Biso   1.000  H
  H20      1.0000 0.05457  0.24574  0.25536  Biso   1.000  H
  H21      1.0000 0.34029  0.23128  0.83843  Biso   1.000  H
  H22      1.0000 0.76871  0.65968  0.66155  Biso   1.000  H
  H23      1.0000 0.65970  0.76875  0.16156  Biso   1.000  H
  H24      1.0000 0.23128  0.34028  0.33843  Biso   1.000  H
  H25      1.0000 0.14255  0.16791  0.83674  Biso   1.000  H
  H26      1.0000 0.83209  0.85741  0.66324  Biso   1.000  H
  H27      1.0000 0.85744  0.83212  0.16327  Biso   1.000  H
  H28      1.0000 0.16790  0.14254  0.33674  Biso   1.000  H
  H29      1.0000 0.36537  0.63856  0.95301  Biso   1.000  H
  H30      1.0000 0.36149  0.63467  0.54700  Biso   1.000  H
  H31      1.0000 0.63467  0.36149  0.04699  Biso   1.000  H
  H32      1.0000 0.63853  0.36534  0.45300  Biso   1.000  H
  H33      1.0000 0.37396  0.67593  0.10009  Biso   1.000  H
  H34      1.0000 0.32412  0.62605  0.39991  Biso   1.000  H
  H35      1.0000 0.62606  0.32411  0.89990  Biso   1.000  H
  H36      1.0000 0.67590  0.37394  0.60010  Biso   1.000  H
  H37      1.0000 0.23169  0.38589  0.03009  Biso   1.000  H
  H38      1.0000 0.61412  0.76835  0.46992  Biso   1.000  H
  H39      1.0000 0.76836  0.61412  0.96993  Biso   1.000  H
  H40      1.0000 0.38590  0.23167  0.53007  Biso   1.000  H
  H41      1.0000 0.02461  0.77765  0.98579  Biso   1.000  H
  H42      1.0000 0.22234  0.97540  0.51420  Biso   1.000  H
  H43      1.0000 0.97541  0.22238  0.01421  Biso   1.000  H
  H44      1.0000 0.77765  0.02459  0.48580  Biso   1.000  H
  C1       1.0000 0.36221  0.95189  0.21728  Biso   1.000  C
  C2       1.0000 0.04814  0.63775  0.28271  Biso   1.000  C
  C3       1.0000 0.63777  0.04812  0.78273  Biso   1.000  C
  C4       1.0000 0.95187  0.36221  0.71728  Biso   1.000  C
  C5       1.0000 0.33008  0.96575  0.09689  Biso   1.000  C
  C6       1.0000 0.03426  0.66988  0.40309  Biso   1.000  C
  C7       1.0000 0.66989  0.03426  0.90311  Biso   1.000  C
  C8       1.0000 0.96576  0.33009  0.59690  Biso   1.000  C
  C9       1.0000 0.31190  0.09360  0.04592  Biso   1.000  C
  C10      1.0000 0.90642  0.68809  0.45407  Biso   1.000  C
  C11      1.0000 0.68810  0.90642  0.95409  Biso   1.000  C
  C12      1.0000 0.09359  0.31189  0.54592  Biso   1.000  C
  C13      1.0000 0.28282  0.04272  0.93005  Biso   1.000  C
  C14      1.0000 0.95730  0.71715  0.56996  Biso   1.000  C
  C15      1.0000 0.71718  0.95731  0.06995  Biso   1.000  C
  C16      1.0000 0.04270  0.28281  0.43004  Biso   1.000  C
  C17      1.0000 0.25207  0.12850  0.83543  Biso   1.000  C
  C18      1.0000 0.87148  0.74790  0.66458  Biso   1.000  C
  C19      1.0000 0.74792  0.87152  0.16459  Biso   1.000  C
  C20      1.0000 0.12850  0.25206  0.33542  Biso   1.000  C
  C21      1.0000 0.30770  0.68558  0.02014  Biso   1.000  C
  C22      1.0000 0.31445  0.69232  0.47987  Biso   1.000  C
  C23      1.0000 0.69232  0.31447  0.97986  Biso   1.000  C
  C24      1.0000 0.68556  0.30767  0.52014  Biso   1.000  C
  C25      1.0000 0.14694  0.59272  0.00953  Biso   1.000  C
  C26      1.0000 0.40732  0.85305  0.49047  Biso   1.000  C
  C27      1.0000 0.85303  0.40733  0.99047  Biso   1.000  C
  C28      1.0000 0.59269  0.14693  0.50953  Biso   1.000  C
  C29      1.0000 0.12972  0.43625  0.01703  Biso   1.000  C
  C30      1.0000 0.56378  0.87028  0.48297  Biso   1.000  C
  C31      1.0000 0.87028  0.56377  0.98298  Biso   1.000  C
  C32      1.0000 0.43623  0.12972  0.51701  Biso   1.000  C
  C33      1.0000 0.01508  0.65592  0.99215  Biso   1.000  C
  C34      1.0000 0.34409  0.98491  0.50784  Biso   1.000  C
  C35      1.0000 0.98490  0.34412  0.00786  Biso   1.000  C
  C36      1.0000 0.65592  0.01508  0.49216  Biso   1.000  C
  N1       1.0000 0.47444  0.52554  0.75000  Biso   1.000  N
  N2       1.0000 0.52554  0.47445  0.24999  Biso   1.000  N
  N3       1.0000 0.28390  0.89131  0.91107  Biso   1.000  N
  N4       1.0000 0.10872  0.71607  0.58896  Biso   1.000  N
  N5       1.0000 0.71610  0.10872  0.08893  Biso   1.000  N
  N6       1.0000 0.89129  0.28390  0.41105  Biso   1.000  N
  N7       1.0000 0.31273  0.84613  0.01289  Biso   1.000  N
  N8       1.0000 0.15387  0.68725  0.48711  Biso   1.000  N
  N9       1.0000 0.68725  0.15388  0.98710  Biso   1.000  N
  N10      1.0000 0.84613  0.31273  0.51289  Biso   1.000  N
  O1       1.0000 0.50720  0.65231  0.71288  Biso   1.000  O
  O2       1.0000 0.34770  0.49278  0.78714  Biso   1.000  O
  O3       1.0000 0.49278  0.34770  0.28714  Biso   1.000  O
  O4       1.0000 0.65231  0.50721  0.21288  Biso   1.000  O
  O5       1.0000 0.56653  0.43343  0.74995  Biso   1.000  O
  O6       1.0000 0.43344  0.56654  0.24997  Biso   1.000  O
