data_image0
_cell_length_a       8.8866
_cell_length_b       8.86247
_cell_length_c       9.03776
_cell_angle_alpha    85.3618
_cell_angle_beta     75.986
_cell_angle_gamma    77.157

_symmetry_space_group_name_H-M    "P 1"
_symmetry_int_tables_number       1

loop_
  _symmetry_equiv_pos_as_xyz
  'x, y, z'

loop_
  _atom_site_label
  _atom_site_occupancy
  _atom_site_fract_x
  _atom_site_fract_y
  _atom_site_fract_z
  _atom_site_thermal_displace_type
  _atom_site_B_iso_or_equiv
  _atom_site_type_symbol
  Cd1      1.0000 0.11314  0.80952  0.73850  Biso   1.000  Cd
  Cd2      1.0000 0.88687  0.19048  0.26150  Biso   1.000  Cd
  H1       1.0000 0.40527  0.92012  0.62764  Biso   1.000  H
  H2       1.0000 0.59473  0.07988  0.37237  Biso   1.000  H
  H3       1.0000 0.56070  0.88347  0.72694  Biso   1.000  H
  H4       1.0000 0.43930  0.11652  0.27306  Biso   1.000  H
  H5       1.0000 0.60552  0.85122  0.52987  Biso   1.000  H
  H6       1.0000 0.39448  0.14878  0.47013  Biso   1.000  H
  H7       1.0000 0.73722  0.54321  0.68505  Biso   1.000  H
  H8       1.0000 0.26278  0.45679  0.31495  Biso   1.000  H
  H9       1.0000 0.72072  0.23750  0.75772  Biso   1.000  H
  H10      1.0000 0.27927  0.76249  0.24228  Biso   1.000  H
  H11      1.0000 0.52804  0.21141  0.85150  Biso   1.000  H
  H12      1.0000 0.47196  0.78858  0.14849  Biso   1.000  H
  H13      1.0000 0.59889  0.18476  0.65148  Biso   1.000  H
  H14      1.0000 0.40111  0.81523  0.34852  Biso   1.000  H
  H15      1.0000 0.20836  0.41383  0.62973  Biso   1.000  H
  H16      1.0000 0.79163  0.58616  0.37027  Biso   1.000  H
  H17      1.0000 0.30448  0.27830  0.74922  Biso   1.000  H
  H18      1.0000 0.69552  0.72169  0.25078  Biso   1.000  H
  H19      1.0000 0.26872  0.54551  0.98834  Biso   1.000  H
  H20      1.0000 0.73128  0.45449  0.01166  Biso   1.000  H
  H21      1.0000 0.94842  0.37765  0.78460  Biso   1.000  H
  H22      1.0000 0.05158  0.62236  0.21540  Biso   1.000  H
  C1       1.0000 0.51720  0.84219  0.63694  Biso   1.000  C
  C2       1.0000 0.48280  0.15780  0.36307  Biso   1.000  C
  C3       1.0000 0.49781  0.67947  0.66974  Biso   1.000  C
  C4       1.0000 0.50220  0.32053  0.33027  Biso   1.000  C
  C5       1.0000 0.61310  0.54736  0.69079  Biso   1.000  C
  C6       1.0000 0.38690  0.45263  0.30921  Biso   1.000  C
  C7       1.0000 0.53693  0.42311  0.71700  Biso   1.000  C
  C8       1.0000 0.46307  0.57689  0.28300  Biso   1.000  C
  C9       1.0000 0.59820  0.25564  0.74614  Biso   1.000  C
  C10      1.0000 0.40179  0.74435  0.25386  Biso   1.000  C
  C11      1.0000 0.25435  0.40204  0.73368  Biso   1.000  C
  C12      1.0000 0.74565  0.59796  0.26632  Biso   1.000  C
  C13      1.0000 0.12270  0.45704  0.87053  Biso   1.000  C
  C14      1.0000 0.87729  0.54297  0.12947  Biso   1.000  C
  C15      1.0000 0.15095  0.52565  0.99277  Biso   1.000  C
  C16      1.0000 0.84905  0.47435  0.00723  Biso   1.000  C
  C17      1.0000 0.97085  0.43185  0.87907  Biso   1.000  C
  C18      1.0000 0.02915  0.56816  0.12093  Biso   1.000  C
  C19      1.0000 0.92681  0.85358  0.45483  Biso   1.000  C
  C20      1.0000 0.07318  0.14644  0.54517  Biso   1.000  C
  C21      1.0000 0.18930  0.99889  0.01101  Biso   1.000  C
  C22      1.0000 0.81069  0.00112  0.98899  Biso   1.000  C
  S1       1.0000 0.00832  0.68782  0.52235  Biso   1.000  S
  S2       1.0000 0.99168  0.31218  0.47765  Biso   1.000  S
  S3       1.0000 0.19154  0.13543  0.12120  Biso   1.000  S
  S4       1.0000 0.80847  0.86457  0.87880  Biso   1.000  S
  N1       1.0000 0.19035  0.89785  0.93288  Biso   1.000  N
  N2       1.0000 0.80966  0.10216  0.06710  Biso   1.000  N
  N3       1.0000 0.38354  0.48274  0.71021  Biso   1.000  N
  N4       1.0000 0.61646  0.51726  0.28978  Biso   1.000  N
  N5       1.0000 0.35771  0.63881  0.68188  Biso   1.000  N
  N6       1.0000 0.64229  0.36118  0.31811  Biso   1.000  N
  N7       1.0000 0.86338  0.97137  0.40453  Biso   1.000  N
  N8       1.0000 0.13662  0.02862  0.59548  Biso   1.000  N
