data_image0
_cell_length_a       5.01989
_cell_length_b       13.043
_cell_length_c       13.79
_cell_angle_alpha    96.1538
_cell_angle_beta     90
_cell_angle_gamma    90

_symmetry_space_group_name_H-M    "P 1"
_symmetry_int_tables_number       1

loop_
  _symmetry_equiv_pos_as_xyz
  'x, y, z'

loop_
  _atom_site_label
  _atom_site_occupancy
  _atom_site_fract_x
  _atom_site_fract_y
  _atom_site_fract_z
  _atom_site_thermal_displace_type
  _atom_site_B_iso_or_equiv
  _atom_site_type_symbol
  Hg1      1.0000 0.01170  0.50000  0.75000  Biso   1.000  Hg
  Hg2      1.0000 0.98830  0.50000  0.25000  Biso   1.000  Hg
  H1       1.0000 0.60660  0.56370  0.94284  Biso   1.000  H
  H2       1.0000 0.60660  0.43630  0.55716  Biso   1.000  H
  H3       1.0000 0.39340  0.43630  0.05716  Biso   1.000  H
  H4       1.0000 0.39340  0.56370  0.44284  Biso   1.000  H
  H5       1.0000 0.73152  0.70348  0.69158  Biso   1.000  H
  H6       1.0000 0.73152  0.29652  0.80842  Biso   1.000  H
  H7       1.0000 0.26849  0.29651  0.30842  Biso   1.000  H
  H8       1.0000 0.26849  0.70348  0.19158  Biso   1.000  H
  H9       1.0000 0.10057  0.81875  0.88589  Biso   1.000  H
  H10      1.0000 0.10057  0.18125  0.61411  Biso   1.000  H
  H11      1.0000 0.89943  0.18124  0.11411  Biso   1.000  H
  H12      1.0000 0.89943  0.81875  0.38589  Biso   1.000  H
  H13      1.0000 0.23013  0.68247  0.99511  Biso   1.000  H
  H14      1.0000 0.23013  0.31753  0.50489  Biso   1.000  H
  H15      1.0000 0.76987  0.31753  0.00489  Biso   1.000  H
  H16      1.0000 0.76987  0.68247  0.49511  Biso   1.000  H
  H17      1.0000 0.72372  0.87168  0.68247  Biso   1.000  H
  H18      1.0000 0.72372  0.12832  0.81753  Biso   1.000  H
  H19      1.0000 0.27628  0.12832  0.31753  Biso   1.000  H
  H20      1.0000 0.27628  0.87168  0.18247  Biso   1.000  H
  H21      1.0000 0.86337  0.02914  0.62214  Biso   1.000  H
  H22      1.0000 0.86337  0.97086  0.87786  Biso   1.000  H
  H23      1.0000 0.13663  0.97086  0.37786  Biso   1.000  H
  H24      1.0000 0.13663  0.02914  0.12214  Biso   1.000  H
  H25      1.0000 0.15151  0.86881  0.52105  Biso   1.000  H
  H26      1.0000 0.15151  0.13119  0.97895  Biso   1.000  H
  H27      1.0000 0.84849  0.13119  0.47895  Biso   1.000  H
  H28      1.0000 0.84848  0.86881  0.02105  Biso   1.000  H
  C1       1.0000 0.54592  0.62441  0.89899  Biso   1.000  C
  C2       1.0000 0.54592  0.37559  0.60101  Biso   1.000  C
  C3       1.0000 0.45408  0.37559  0.10101  Biso   1.000  C
  C4       1.0000 0.45408  0.62441  0.39899  Biso   1.000  C
  C5       1.0000 0.61671  0.70377  0.75881  Biso   1.000  C
  C6       1.0000 0.61671  0.29623  0.74119  Biso   1.000  C
  C7       1.0000 0.38329  0.29623  0.24119  Biso   1.000  C
  C8       1.0000 0.38329  0.70377  0.25881  Biso   1.000  C
  C9       1.0000 0.40973  0.77381  0.78187  Biso   1.000  C
  C10      1.0000 0.40973  0.22619  0.71813  Biso   1.000  C
  C11      1.0000 0.59027  0.22619  0.21813  Biso   1.000  C
  C12      1.0000 0.59027  0.77381  0.28187  Biso   1.000  C
  C13      1.0000 0.26633  0.76634  0.86777  Biso   1.000  C
  C14      1.0000 0.26633  0.23366  0.63223  Biso   1.000  C
  C15      1.0000 0.73367  0.23366  0.13223  Biso   1.000  C
  C16      1.0000 0.73367  0.76634  0.36777  Biso   1.000  C
  C17      1.0000 0.32834  0.84827  0.71241  Biso   1.000  C
  C18      1.0000 0.32834  0.15173  0.78759  Biso   1.000  C
  C19      1.0000 0.67167  0.15173  0.28759  Biso   1.000  C
  C20      1.0000 0.67166  0.84827  0.21241  Biso   1.000  C
  C21      1.0000 0.33725  0.69158  0.92782  Biso   1.000  C
  C22      1.0000 0.33725  0.30842  0.57218  Biso   1.000  C
  C23      1.0000 0.66275  0.30842  0.07218  Biso   1.000  C
  C24      1.0000 0.66275  0.69158  0.42782  Biso   1.000  C
  C25      1.0000 0.50792  0.94309  0.58062  Biso   1.000  C
  C26      1.0000 0.50792  0.05691  0.91938  Biso   1.000  C
  C27      1.0000 0.49208  0.05691  0.41938  Biso   1.000  C
  C28      1.0000 0.49208  0.94309  0.08062  Biso   1.000  C
  C29      1.0000 0.70443  0.01696  0.56820  Biso   1.000  C
  C30      1.0000 0.70443  0.98304  0.93180  Biso   1.000  C
  C31      1.0000 0.29557  0.98304  0.43180  Biso   1.000  C
  C32      1.0000 0.29557  0.01696  0.06820  Biso   1.000  C
  C33      1.0000 0.30281  0.92667  0.51184  Biso   1.000  C
  C34      1.0000 0.30281  0.07333  0.98816  Biso   1.000  C
  C35      1.0000 0.69719  0.07333  0.48816  Biso   1.000  C
  C36      1.0000 0.69719  0.92667  0.01184  Biso   1.000  C
  N1       1.0000 0.68136  0.63060  0.81578  Biso   1.000  N
  N2       1.0000 0.68136  0.36940  0.68422  Biso   1.000  N
  N3       1.0000 0.31865  0.36940  0.18422  Biso   1.000  N
  N4       1.0000 0.31864  0.63060  0.31578  Biso   1.000  N
  N5       1.0000 0.53216  0.88326  0.65955  Biso   1.000  N
  N6       1.0000 0.53216  0.11674  0.84045  Biso   1.000  N
  N7       1.0000 0.46784  0.11674  0.34045  Biso   1.000  N
  N8       1.0000 0.46784  0.88326  0.15955  Biso   1.000  N
  Cl1      1.0000 0.11807  0.41206  0.88919  Biso   1.000  Cl
  Cl2      1.0000 0.11806  0.58794  0.61081  Biso   1.000  Cl
  Cl3      1.0000 0.88193  0.58794  0.11081  Biso   1.000  Cl
  Cl4      1.0000 0.88193  0.41206  0.38919  Biso   1.000  Cl
  O1       1.0000 0.09098  0.87382  0.70403  Biso   1.000  O
  O2       1.0000 0.09098  0.12618  0.79597  Biso   1.000  O
  O3       1.0000 0.90902  0.12618  0.29597  Biso   1.000  O
  O4       1.0000 0.90902  0.87382  0.20403  Biso   1.000  O
