data_image0
_cell_length_a       8.33614
_cell_length_b       9.18203
_cell_length_c       11.4604
_cell_angle_alpha    89.9999
_cell_angle_beta     94.1984
_cell_angle_gamma    90.0001

_symmetry_space_group_name_H-M    "P 1"
_symmetry_int_tables_number       1

loop_
  _symmetry_equiv_pos_as_xyz
  'x, y, z'

loop_
  _atom_site_label
  _atom_site_occupancy
  _atom_site_fract_x
  _atom_site_fract_y
  _atom_site_fract_z
  _atom_site_thermal_displace_type
  _atom_site_B_iso_or_equiv
  _atom_site_type_symbol
  Hg1      1.0000 0.00000  0.00000  1.00000  Biso   1.000  Hg
  Hg2      1.0000 0.50000  0.50000  0.50000  Biso   1.000  Hg
  H1       1.0000 0.64279  0.09687  0.59746  Biso   1.000  H
  H2       1.0000 0.85721  0.59687  0.90254  Biso   1.000  H
  H3       1.0000 0.35721  0.90313  0.40254  Biso   1.000  H
  H4       1.0000 0.14279  0.40313  0.09746  Biso   1.000  H
  H5       1.0000 0.31733  0.79715  0.95501  Biso   1.000  H
  H6       1.0000 0.18267  0.29715  0.54499  Biso   1.000  H
  H7       1.0000 0.68267  0.20285  0.04499  Biso   1.000  H
  H8       1.0000 0.81733  0.70285  0.45501  Biso   1.000  H
  H9       1.0000 0.58919  0.78760  0.87235  Biso   1.000  H
  H10      1.0000 0.91081  0.28759  0.62765  Biso   1.000  H
  H11      1.0000 0.41081  0.21241  0.12764  Biso   1.000  H
  H12      1.0000 0.08918  0.71241  0.37235  Biso   1.000  H
  H13      1.0000 0.50018  0.22049  0.73565  Biso   1.000  H
  H14      1.0000 0.99982  0.72049  0.76435  Biso   1.000  H
  H15      1.0000 0.49982  0.77951  0.26435  Biso   1.000  H
  H16      1.0000 0.00018  0.27951  0.23566  Biso   1.000  H
  H17      1.0000 0.23595  0.21401  0.82776  Biso   1.000  H
  H18      1.0000 0.26406  0.71401  0.67224  Biso   1.000  H
  H19      1.0000 0.76406  0.78600  0.17224  Biso   1.000  H
  H20      1.0000 0.73594  0.28599  0.32776  Biso   1.000  H
  H21      1.0000 0.05304  0.00400  0.71588  Biso   1.000  H
  H22      1.0000 0.44696  0.50400  0.78412  Biso   1.000  H
  H23      1.0000 0.94696  0.99600  0.28412  Biso   1.000  H
  H24      1.0000 0.55304  0.49600  0.21589  Biso   1.000  H
  H25      1.0000 0.72259  0.03552  0.41032  Biso   1.000  H
  H26      1.0000 0.77742  0.53552  0.08968  Biso   1.000  H
  H27      1.0000 0.27742  0.96448  0.58968  Biso   1.000  H
  H28      1.0000 0.22259  0.46448  0.91032  Biso   1.000  H
  C1       1.0000 0.36307  0.88821  0.90597  Biso   1.000  C
  C2       1.0000 0.13693  0.38821  0.59404  Biso   1.000  C
  C3       1.0000 0.63693  0.11179  0.09403  Biso   1.000  C
  C4       1.0000 0.86307  0.61179  0.40596  Biso   1.000  C
  C5       1.0000 0.51222  0.88254  0.85977  Biso   1.000  C
  C6       1.0000 0.98779  0.38254  0.64023  Biso   1.000  C
  C7       1.0000 0.48779  0.11746  0.14022  Biso   1.000  C
  C8       1.0000 0.01221  0.61746  0.35977  Biso   1.000  C
  C9       1.0000 0.56314  0.00087  0.79496  Biso   1.000  C
  C10      1.0000 0.93686  0.50087  0.70505  Biso   1.000  C
  C11      1.0000 0.43686  0.99913  0.20504  Biso   1.000  C
  C12      1.0000 0.06314  0.49913  0.29496  Biso   1.000  C
  C13      1.0000 0.46373  0.12341  0.78176  Biso   1.000  C
  C14      1.0000 0.03627  0.62341  0.71824  Biso   1.000  C
  C15      1.0000 0.53627  0.87659  0.21824  Biso   1.000  C
  C16      1.0000 0.96373  0.37658  0.28176  Biso   1.000  C
  C17      1.0000 0.31737  0.12083  0.83376  Biso   1.000  C
  C18      1.0000 0.18263  0.62083  0.66625  Biso   1.000  C
  C19      1.0000 0.68263  0.87917  0.16624  Biso   1.000  C
  C20      1.0000 0.81737  0.37917  0.33375  Biso   1.000  C
  C21      1.0000 0.72356  0.98497  0.74573  Biso   1.000  C
  C22      1.0000 0.77644  0.48496  0.75427  Biso   1.000  C
  C23      1.0000 0.27644  0.01503  0.25427  Biso   1.000  C
  C24      1.0000 0.22356  0.51504  0.24573  Biso   1.000  C
  C25      1.0000 0.87265  0.02301  0.57155  Biso   1.000  C
  C26      1.0000 0.62735  0.52301  0.92845  Biso   1.000  C
  C27      1.0000 0.12735  0.97699  0.42845  Biso   1.000  C
  C28      1.0000 0.37265  0.47699  0.07156  Biso   1.000  C
  C29      1.0000 0.02957  0.00152  0.62165  Biso   1.000  C
  C30      1.0000 0.47044  0.50152  0.87835  Biso   1.000  C
  C31      1.0000 0.97044  0.99848  0.37835  Biso   1.000  C
  C32      1.0000 0.52957  0.49848  0.12165  Biso   1.000  C
  C33      1.0000 0.84473  0.02124  0.44948  Biso   1.000  C
  C34      1.0000 0.65527  0.52123  0.05052  Biso   1.000  C
  C35      1.0000 0.15527  0.97877  0.55052  Biso   1.000  C
  C36      1.0000 0.34473  0.47876  0.94948  Biso   1.000  C
  N1       1.0000 0.26694  0.00554  0.89310  Biso   1.000  N
  N2       1.0000 0.23306  0.50554  0.60690  Biso   1.000  N
  N3       1.0000 0.73306  0.99446  0.10690  Biso   1.000  N
  N4       1.0000 0.76694  0.49446  0.39309  Biso   1.000  N
  N5       1.0000 0.74093  0.04717  0.63964  Biso   1.000  N
  N6       1.0000 0.75908  0.54717  0.86036  Biso   1.000  N
  N7       1.0000 0.25908  0.95283  0.36036  Biso   1.000  N
  N8       1.0000 0.24092  0.45283  0.13964  Biso   1.000  N
  Cl1      1.0000 0.03281  0.74020  0.04080  Biso   1.000  Cl
  Cl2      1.0000 0.46719  0.24020  0.45920  Biso   1.000  Cl
  Cl3      1.0000 0.96720  0.25980  0.95920  Biso   1.000  Cl
  Cl4      1.0000 0.53281  0.75980  0.54080  Biso   1.000  Cl
  O1       1.0000 0.83074  0.91123  0.79941  Biso   1.000  O
  O2       1.0000 0.66926  0.41123  0.70059  Biso   1.000  O
  O3       1.0000 0.16926  0.08877  0.20059  Biso   1.000  O
  O4       1.0000 0.33074  0.58877  0.29941  Biso   1.000  O
