data_image0
_cell_length_a       7.02608
_cell_length_b       10.0524
_cell_length_c       13.0339
_cell_angle_alpha    90.0001
_cell_angle_beta     90.0003
_cell_angle_gamma    97.2523

_symmetry_space_group_name_H-M    "P 1"
_symmetry_int_tables_number       1

loop_
  _symmetry_equiv_pos_as_xyz
  'x, y, z'

loop_
  _atom_site_label
  _atom_site_occupancy
  _atom_site_fract_x
  _atom_site_fract_y
  _atom_site_fract_z
  _atom_site_thermal_displace_type
  _atom_site_B_iso_or_equiv
  _atom_site_type_symbol
  K1       1.0000 0.15614  0.96960  0.39287  Biso   1.000  K
  K2       1.0000 0.34386  0.03041  0.89286  Biso   1.000  K
  K3       1.0000 0.84387  0.03040  0.60714  Biso   1.000  K
  K4       1.0000 0.65613  0.96960  0.10714  Biso   1.000  K
  H1       1.0000 0.18952  0.58425  0.49130  Biso   1.000  H
  H2       1.0000 0.31048  0.41575  0.99129  Biso   1.000  H
  H3       1.0000 0.81048  0.41574  0.50870  Biso   1.000  H
  H4       1.0000 0.68952  0.58425  0.00871  Biso   1.000  H
  H5       1.0000 0.23908  0.34177  0.47702  Biso   1.000  H
  H6       1.0000 0.26092  0.65823  0.97701  Biso   1.000  H
  H7       1.0000 0.76093  0.65823  0.52299  Biso   1.000  H
  H8       1.0000 0.73908  0.34177  0.02299  Biso   1.000  H
  H9       1.0000 0.46062  0.35341  0.78623  Biso   1.000  H
  H10      1.0000 0.03937  0.64658  0.28622  Biso   1.000  H
  H11      1.0000 0.53937  0.64659  0.21377  Biso   1.000  H
  H12      1.0000 0.96063  0.35342  0.71377  Biso   1.000  H
  H13      1.0000 0.40307  0.59426  0.80214  Biso   1.000  H
  H14      1.0000 0.09693  0.40573  0.30213  Biso   1.000  H
  H15      1.0000 0.59692  0.40573  0.19786  Biso   1.000  H
  H16      1.0000 0.90307  0.59427  0.69787  Biso   1.000  H
  C1       1.0000 0.29706  0.59991  0.64668  Biso   1.000  C
  C2       1.0000 0.20295  0.40009  0.14667  Biso   1.000  C
  C3       1.0000 0.70295  0.40008  0.35332  Biso   1.000  C
  C4       1.0000 0.79705  0.59991  0.85333  Biso   1.000  C
  C5       1.0000 0.24776  0.53235  0.55522  Biso   1.000  C
  C6       1.0000 0.25224  0.46765  0.05522  Biso   1.000  C
  C7       1.0000 0.75225  0.46765  0.44478  Biso   1.000  C
  C8       1.0000 0.74775  0.53235  0.94478  Biso   1.000  C
  C9       1.0000 0.27711  0.39808  0.54719  Biso   1.000  C
  C10      1.0000 0.22290  0.60192  0.04718  Biso   1.000  C
  C11      1.0000 0.72290  0.60192  0.45281  Biso   1.000  C
  C12      1.0000 0.77710  0.39808  0.95282  Biso   1.000  C
  C13      1.0000 0.35667  0.33657  0.63054  Biso   1.000  C
  C14      1.0000 0.14333  0.66343  0.13053  Biso   1.000  C
  C15      1.0000 0.64333  0.66343  0.36946  Biso   1.000  C
  C16      1.0000 0.85667  0.33657  0.86947  Biso   1.000  C
  C17      1.0000 0.40039  0.40459  0.72262  Biso   1.000  C
  C18      1.0000 0.09961  0.59541  0.22261  Biso   1.000  C
  C19      1.0000 0.59961  0.59541  0.27737  Biso   1.000  C
  C20      1.0000 0.90039  0.40459  0.77739  Biso   1.000  C
  C21      1.0000 0.36975  0.53877  0.73120  Biso   1.000  C
  C22      1.0000 0.13025  0.46123  0.23121  Biso   1.000  C
  C23      1.0000 0.63026  0.46122  0.26880  Biso   1.000  C
  C24      1.0000 0.86974  0.53877  0.76879  Biso   1.000  C
  S1       1.0000 0.41447  0.17035  0.61440  Biso   1.000  S
  S2       1.0000 0.08553  0.82965  0.11439  Biso   1.000  S
  S3       1.0000 0.58553  0.82965  0.38560  Biso   1.000  S
  S4       1.0000 0.91446  0.17035  0.88561  Biso   1.000  S
  I1       1.0000 0.26458  0.80898  0.65360  Biso   1.000  I
  I2       1.0000 0.23542  0.19102  0.15360  Biso   1.000  I
  I3       1.0000 0.73542  0.19103  0.34640  Biso   1.000  I
  I4       1.0000 0.76458  0.80898  0.84640  Biso   1.000  I
  O1       1.0000 0.05468  0.79805  0.57108  Biso   1.000  O
  O2       1.0000 0.44532  0.20195  0.07108  Biso   1.000  O
  O3       1.0000 0.94532  0.20195  0.42892  Biso   1.000  O
  O4       1.0000 0.55468  0.79806  0.92892  Biso   1.000  O
  O5       1.0000 0.15861  0.81333  0.78176  Biso   1.000  O
  O6       1.0000 0.34139  0.18668  0.28176  Biso   1.000  O
  O7       1.0000 0.84139  0.18667  0.21824  Biso   1.000  O
  O8       1.0000 0.65861  0.81332  0.71824  Biso   1.000  O
  O9       1.0000 0.23639  0.08724  0.58296  Biso   1.000  O
  O10      1.0000 0.26361  0.91276  0.08296  Biso   1.000  O
  O11      1.0000 0.76362  0.91276  0.41704  Biso   1.000  O
  O12      1.0000 0.73639  0.08724  0.91704  Biso   1.000  O
  O13      1.0000 0.49122  0.12840  0.71215  Biso   1.000  O
  O14      1.0000 0.00877  0.87160  0.21215  Biso   1.000  O
  O15      1.0000 0.50878  0.87160  0.28785  Biso   1.000  O
  O16      1.0000 0.99122  0.12840  0.78785  Biso   1.000  O
  O17      1.0000 0.56098  0.18075  0.53262  Biso   1.000  O
  O18      1.0000 0.93902  0.81925  0.03262  Biso   1.000  O
  O19      1.0000 0.43902  0.81925  0.46738  Biso   1.000  O
  O20      1.0000 0.06097  0.18075  0.96738  Biso   1.000  O
