data_image0
_cell_length_a       6.9331
_cell_length_b       9.16773
_cell_length_c       9.16769
_cell_angle_alpha    90.1648
_cell_angle_beta     90.0003
_cell_angle_gamma    90.0002

_symmetry_space_group_name_H-M    "P 1"
_symmetry_int_tables_number       1

loop_
  _symmetry_equiv_pos_as_xyz
  'x, y, z'

loop_
  _atom_site_label
  _atom_site_occupancy
  _atom_site_fract_x
  _atom_site_fract_y
  _atom_site_fract_z
  _atom_site_thermal_displace_type
  _atom_site_B_iso_or_equiv
  _atom_site_type_symbol
  Fe1      1.0000 0.25000  0.50000  0.50000  Biso   1.000  Fe
  Fe2      1.0000 0.75000  0.50000  0.50000  Biso   1.000  Fe
  H1       1.0000 0.18764  0.49842  0.85114  Biso   1.000  H
  H2       1.0000 0.18764  0.50158  0.14886  Biso   1.000  H
  H3       1.0000 0.68765  0.14885  0.50158  Biso   1.000  H
  H4       1.0000 0.68764  0.85115  0.49842  Biso   1.000  H
  H5       1.0000 0.81235  0.49842  0.85115  Biso   1.000  H
  H6       1.0000 0.81236  0.50158  0.14886  Biso   1.000  H
  H7       1.0000 0.31236  0.85114  0.49842  Biso   1.000  H
  H8       1.0000 0.31236  0.14886  0.50158  Biso   1.000  H
  C1       1.0000 0.49996  0.50004  0.92098  Biso   1.000  C
  C2       1.0000 0.49996  0.49996  0.07902  Biso   1.000  C
  C3       1.0000 0.00004  0.07902  0.49995  Biso   1.000  C
  C4       1.0000 0.00004  0.92098  0.50004  Biso   1.000  C
  C5       1.0000 0.34077  0.50004  0.82611  Biso   1.000  C
  C6       1.0000 0.34076  0.49996  0.17389  Biso   1.000  C
  C7       1.0000 0.84079  0.17391  0.49995  Biso   1.000  C
  C8       1.0000 0.84079  0.82609  0.50005  Biso   1.000  C
  C9       1.0000 0.65921  0.50005  0.82609  Biso   1.000  C
  C10      1.0000 0.65920  0.49995  0.17392  Biso   1.000  C
  C11      1.0000 0.15924  0.82612  0.50005  Biso   1.000  C
  C12      1.0000 0.15924  0.17389  0.49995  Biso   1.000  C
  N1       1.0000 0.40125  0.50044  0.68616  Biso   1.000  N
  N2       1.0000 0.40126  0.49957  0.31383  Biso   1.000  N
  N3       1.0000 0.90125  0.31385  0.49956  Biso   1.000  N
  N4       1.0000 0.90125  0.68614  0.50044  Biso   1.000  N
  N5       1.0000 0.59875  0.50044  0.68614  Biso   1.000  N
  N6       1.0000 0.59876  0.49957  0.31386  Biso   1.000  N
  N7       1.0000 0.09874  0.68617  0.50044  Biso   1.000  N
  N8       1.0000 0.09874  0.31383  0.49956  Biso   1.000  N
