data_image0
_cell_length_a       7.36262
_cell_length_b       8.79572
_cell_length_c       8.22559
_cell_angle_alpha    94.5371
_cell_angle_beta     84.8154
_cell_angle_gamma    63.7765

_symmetry_space_group_name_H-M    "P 1"
_symmetry_int_tables_number       1

loop_
  _symmetry_equiv_pos_as_xyz
  'x, y, z'

loop_
  _atom_site_label
  _atom_site_occupancy
  _atom_site_fract_x
  _atom_site_fract_y
  _atom_site_fract_z
  _atom_site_thermal_displace_type
  _atom_site_B_iso_or_equiv
  _atom_site_type_symbol
  Mn1      1.0000 0.50547  0.13890  0.78115  Biso   1.000  Mn
  Mn2      1.0000 0.49453  0.86110  0.21885  Biso   1.000  Mn
  H1       1.0000 0.37802  0.91231  0.65347  Biso   1.000  H
  H2       1.0000 0.62198  0.08769  0.34653  Biso   1.000  H
  H3       1.0000 0.39468  0.91358  0.84987  Biso   1.000  H
  H4       1.0000 0.60532  0.08642  0.15014  Biso   1.000  H
  H5       1.0000 0.86891  0.76349  0.34348  Biso   1.000  H
  H6       1.0000 0.13109  0.23651  0.65652  Biso   1.000  H
  H7       1.0000 0.70836  0.78454  0.50862  Biso   1.000  H
  H8       1.0000 0.29164  0.21546  0.49138  Biso   1.000  H
  H9       1.0000 0.64581  0.55171  0.58941  Biso   1.000  H
  H10      1.0000 0.35420  0.44829  0.41059  Biso   1.000  H
  H11      1.0000 0.04571  0.50385  0.15020  Biso   1.000  H
  H12      1.0000 0.95429  0.49616  0.84980  Biso   1.000  H
  H13      1.0000 0.99213  0.06281  0.28934  Biso   1.000  H
  H14      1.0000 0.00788  0.93718  0.71067  Biso   1.000  H
  C1       1.0000 0.80841  0.30051  0.45029  Biso   1.000  C
  C2       1.0000 0.19159  0.69949  0.54971  Biso   1.000  C
  C3       1.0000 0.75172  0.47560  0.47955  Biso   1.000  C
  C4       1.0000 0.24828  0.52440  0.52045  Biso   1.000  C
  C5       1.0000 0.83076  0.55104  0.36836  Biso   1.000  C
  C6       1.0000 0.16924  0.44895  0.63164  Biso   1.000  C
  C7       1.0000 0.97623  0.44840  0.23413  Biso   1.000  C
  C8       1.0000 0.02376  0.55160  0.76587  Biso   1.000  C
  C9       1.0000 0.03583  0.27265  0.20706  Biso   1.000  C
  C10      1.0000 0.96417  0.72734  0.79294  Biso   1.000  C
  C11      1.0000 0.94759  0.19883  0.31227  Biso   1.000  C
  C12      1.0000 0.05242  0.80117  0.68773  Biso   1.000  C
  C13      1.0000 0.71940  0.22295  0.56741  Biso   1.000  C
  C14      1.0000 0.28060  0.77706  0.43259  Biso   1.000  C
  C15      1.0000 0.19910  0.16503  0.06798  Biso   1.000  C
  C16      1.0000 0.80090  0.83496  0.93202  Biso   1.000  C
  N1       1.0000 0.75957  0.73033  0.38842  Biso   1.000  N
  N2       1.0000 0.24043  0.26967  0.61158  Biso   1.000  N
  O1       1.0000 0.71252  0.08323  0.51764  Biso   1.000  O
  O2       1.0000 0.28747  0.91677  0.48237  Biso   1.000  O
  O3       1.0000 0.64666  0.29603  0.71497  Biso   1.000  O
  O4       1.0000 0.35333  0.70398  0.28504  Biso   1.000  O
  O5       1.0000 0.46875  0.90689  0.73983  Biso   1.000  O
  O6       1.0000 0.53125  0.09312  0.26017  Biso   1.000  O
  O7       1.0000 0.25582  0.24236  0.96573  Biso   1.000  O
  O8       1.0000 0.74417  0.75764  0.03427  Biso   1.000  O
  O9       1.0000 0.27678  0.00088  0.05844  Biso   1.000  O
  O10      1.0000 0.72322  0.99912  0.94156  Biso   1.000  O
