data_image0
_cell_length_a       4.94913
_cell_length_b       7.81332
_cell_length_c       7.81317
_cell_angle_alpha    71.813
_cell_angle_beta     71.5308
_cell_angle_gamma    71.5323

_symmetry_space_group_name_H-M    "P 1"
_symmetry_int_tables_number       1

loop_
  _symmetry_equiv_pos_as_xyz
  'x, y, z'

loop_
  _atom_site_label
  _atom_site_occupancy
  _atom_site_fract_x
  _atom_site_fract_y
  _atom_site_fract_z
  _atom_site_thermal_displace_type
  _atom_site_B_iso_or_equiv
  _atom_site_type_symbol
  Co1      1.0000 0.28305  0.71706  0.71704  Biso   1.000  Co
  Co2      1.0000 0.71695  0.28296  0.28294  Biso   1.000  Co
  H1       1.0000 0.00071  0.53511  0.22165  Biso   1.000  H
  H2       1.0000 0.24216  0.22168  0.53526  Biso   1.000  H
  H3       1.0000 0.99929  0.77835  0.46489  Biso   1.000  H
  H4       1.0000 0.75785  0.46474  0.77831  Biso   1.000  H
  H5       1.0000 0.75394  0.78916  0.06453  Biso   1.000  H
  H6       1.0000 0.39216  0.06459  0.78930  Biso   1.000  H
  H7       1.0000 0.24606  0.93546  0.21083  Biso   1.000  H
  H8       1.0000 0.60783  0.21072  0.93542  Biso   1.000  H
  C1       1.0000 0.45580  0.63643  0.07848  Biso   1.000  C
  C2       1.0000 0.82914  0.07848  0.63639  Biso   1.000  C
  C3       1.0000 0.54420  0.92155  0.36354  Biso   1.000  C
  C4       1.0000 0.17086  0.36359  0.92153  Biso   1.000  C
  C5       1.0000 0.61615  0.70256  0.17276  Biso   1.000  C
  C6       1.0000 0.50836  0.17277  0.70260  Biso   1.000  C
  C7       1.0000 0.38385  0.82724  0.29743  Biso   1.000  C
  C8       1.0000 0.49164  0.29741  0.82723  Biso   1.000  C
  O1       1.0000 0.36133  0.75154  0.94409  Biso   1.000  O
  O2       1.0000 0.94296  0.94414  0.75148  Biso   1.000  O
  O3       1.0000 0.63863  0.05591  0.24847  Biso   1.000  O
  O4       1.0000 0.05705  0.24853  0.05583  Biso   1.000  O
  O5       1.0000 0.41043  0.47275  0.14784  Biso   1.000  O
  O6       1.0000 0.96875  0.14790  0.47272  Biso   1.000  O
  O7       1.0000 0.58957  0.85217  0.52725  Biso   1.000  O
  O8       1.0000 0.03125  0.52729  0.85208  Biso   1.000  O
  O9       1.0000 0.78855  0.54691  0.27952  Biso   1.000  O
  O10      1.0000 0.38473  0.27953  0.54701  Biso   1.000  O
  O11      1.0000 0.21145  0.72049  0.45309  Biso   1.000  O
  O12      1.0000 0.61529  0.45299  0.72046  Biso   1.000  O
