data_image0
_cell_length_a       5.0253
_cell_length_b       12.2929
_cell_length_c       15.366
_cell_angle_alpha    98.2132
_cell_angle_beta     89.9981
_cell_angle_gamma    101.786

_symmetry_space_group_name_H-M    "P 1"
_symmetry_int_tables_number       1

loop_
  _symmetry_equiv_pos_as_xyz
  'x, y, z'

loop_
  _atom_site_label
  _atom_site_occupancy
  _atom_site_fract_x
  _atom_site_fract_y
  _atom_site_fract_z
  _atom_site_thermal_displace_type
  _atom_site_B_iso_or_equiv
  _atom_site_type_symbol
  Zn1      1.0000 0.01782  0.99997  0.24999  Biso   1.000  Zn
  Zn2      1.0000 0.98217  0.00004  0.75001  Biso   1.000  Zn
  H1       1.0000 0.92311  0.62483  0.56750  Biso   1.000  H
  H2       1.0000 0.29818  0.37504  0.93253  Biso   1.000  H
  H3       1.0000 0.07689  0.37516  0.43250  Biso   1.000  H
  H4       1.0000 0.70184  0.62496  0.06746  Biso   1.000  H
  H5       1.0000 0.43743  0.45848  0.33688  Biso   1.000  H
  H6       1.0000 0.97861  0.54142  0.16312  Biso   1.000  H
  H7       1.0000 0.56258  0.54151  0.66312  Biso   1.000  H
  H8       1.0000 0.02143  0.45859  0.83687  Biso   1.000  H
  H9       1.0000 0.26561  0.91289  0.46401  Biso   1.000  H
  H10      1.0000 0.35214  0.08690  0.03600  Biso   1.000  H
  H11      1.0000 0.73436  0.08711  0.53599  Biso   1.000  H
  H12      1.0000 0.64785  0.91312  0.96401  Biso   1.000  H
  H13      1.0000 0.37391  0.62681  0.27750  Biso   1.000  H
  H14      1.0000 0.74664  0.37296  0.22245  Biso   1.000  H
  H15      1.0000 0.62610  0.37319  0.72251  Biso   1.000  H
  H16      1.0000 0.25338  0.62704  0.77755  Biso   1.000  H
  H17      1.0000 0.67250  0.02540  0.40046  Biso   1.000  H
  H18      1.0000 0.64672  0.97435  0.09952  Biso   1.000  H
  H19      1.0000 0.32748  0.97460  0.59953  Biso   1.000  H
  H20      1.0000 0.35324  0.02565  0.90048  Biso   1.000  H
  H21      1.0000 0.76619  0.75125  0.22241  Biso   1.000  H
  H22      1.0000 0.01423  0.24843  0.27760  Biso   1.000  H
  H23      1.0000 0.23382  0.24874  0.77759  Biso   1.000  H
  H24      1.0000 0.98577  0.75156  0.72241  Biso   1.000  H
  H25      1.0000 0.46663  0.22082  0.42479  Biso   1.000  H
  H26      1.0000 0.24575  0.77884  0.07544  Biso   1.000  H
  H27      1.0000 0.53337  0.77917  0.57523  Biso   1.000  H
  H28      1.0000 0.75421  0.22116  0.92455  Biso   1.000  H
  H29      1.0000 0.00063  0.74370  0.47317  Biso   1.000  H
  H30      1.0000 0.25651  0.25610  0.02681  Biso   1.000  H
  H31      1.0000 0.99936  0.25628  0.52683  Biso   1.000  H
  H32      1.0000 0.74350  0.74391  0.97320  Biso   1.000  H
  C1       1.0000 0.91318  0.59507  0.38522  Biso   1.000  C
  C2       1.0000 0.31766  0.40470  0.11477  Biso   1.000  C
  C3       1.0000 0.08682  0.40492  0.61478  Biso   1.000  C
  C4       1.0000 0.68239  0.59531  0.88522  Biso   1.000  C
  C5       1.0000 0.28651  0.75948  0.37761  Biso   1.000  C
  C6       1.0000 0.52659  0.24030  0.12237  Biso   1.000  C
  C7       1.0000 0.71347  0.24052  0.62239  Biso   1.000  C
  C8       1.0000 0.47341  0.75972  0.87763  Biso   1.000  C
  C9       1.0000 0.73606  0.57142  0.53777  Biso   1.000  C
  C10      1.0000 0.16458  0.42851  0.96224  Biso   1.000  C
  C11      1.0000 0.26395  0.42857  0.46223  Biso   1.000  C
  C12      1.0000 0.83546  0.57149  0.03775  Biso   1.000  C
  C13      1.0000 0.70166  0.54810  0.44587  Biso   1.000  C
  C14      1.0000 0.15331  0.45180  0.05412  Biso   1.000  C
  C15      1.0000 0.29835  0.45188  0.55412  Biso   1.000  C
  C16      1.0000 0.84674  0.54821  0.94587  Biso   1.000  C
  C17      1.0000 0.46448  0.47561  0.40829  Biso   1.000  C
  C18      1.0000 0.98866  0.52433  0.09171  Biso   1.000  C
  C19      1.0000 0.53552  0.52437  0.59171  Biso   1.000  C
  C20      1.0000 0.01137  0.47568  0.90829  Biso   1.000  C
  C21      1.0000 0.37511  0.87391  0.41137  Biso   1.000  C
  C22      1.0000 0.50063  0.12584  0.08864  Biso   1.000  C
  C23      1.0000 0.62485  0.12608  0.58862  Biso   1.000  C
  C24      1.0000 0.49936  0.87416  0.91136  Biso   1.000  C
  C25      1.0000 0.43040  0.71414  0.30752  Biso   1.000  C
  C26      1.0000 0.71579  0.28563  0.19244  Biso   1.000  C
  C27      1.0000 0.56958  0.28586  0.69248  Biso   1.000  C
  C28      1.0000 0.28423  0.71438  0.80756  Biso   1.000  C
  C29      1.0000 0.59735  0.93689  0.37617  Biso   1.000  C
  C30      1.0000 0.65997  0.06284  0.12382  Biso   1.000  C
  C31      1.0000 0.40263  0.06310  0.62383  Biso   1.000  C
  C32      1.0000 0.34002  0.93716  0.87618  Biso   1.000  C
  C33      1.0000 0.65027  0.78409  0.27619  Biso   1.000  C
  C34      1.0000 0.86565  0.21567  0.22379  Biso   1.000  C
  C35      1.0000 0.34972  0.21591  0.72381  Biso   1.000  C
  C36      1.0000 0.13436  0.78433  0.77621  Biso   1.000  C
  C37      1.0000 0.27939  0.16365  0.39428  Biso   1.000  C
  C38      1.0000 0.11605  0.83629  0.10580  Biso   1.000  C
  C39      1.0000 0.72060  0.83635  0.60573  Biso   1.000  C
  C40      1.0000 0.88392  0.16371  0.89420  Biso   1.000  C
  N1       1.0000 0.73539  0.89373  0.30900  Biso   1.000  N
  N2       1.0000 0.84110  0.10601  0.19097  Biso   1.000  N
  N3       1.0000 0.26459  0.10627  0.69100  Biso   1.000  N
  N4       1.0000 0.15889  0.89400  0.80903  Biso   1.000  N
  N5       1.0000 0.06816  0.69942  0.41749  Biso   1.000  N
  N6       1.0000 0.36839  0.30037  0.08245  Biso   1.000  N
  N7       1.0000 0.93182  0.30056  0.58250  Biso   1.000  N
  N8       1.0000 0.63164  0.69964  0.91755  Biso   1.000  N
  O1       1.0000 0.31709  0.10515  0.32112  Biso   1.000  O
  O2       1.0000 0.21222  0.89482  0.17895  Biso   1.000  O
  O3       1.0000 0.68290  0.89485  0.67889  Biso   1.000  O
  O4       1.0000 0.78775  0.10517  0.82105  Biso   1.000  O
  O5       1.0000 0.05750  0.16212  0.43209  Biso   1.000  O
  O6       1.0000 0.89606  0.83806  0.06787  Biso   1.000  O
  O7       1.0000 0.94250  0.83788  0.56792  Biso   1.000  O
  O8       1.0000 0.10391  0.16195  0.93213  Biso   1.000  O
  O9       1.0000 0.94170  0.54350  0.31180  Biso   1.000  O
  O10      1.0000 0.39755  0.45620  0.18824  Biso   1.000  O
  O11      1.0000 0.05829  0.45649  0.68820  Biso   1.000  O
  O12      1.0000 0.60250  0.54382  0.81176  Biso   1.000  O
