data_image0
_cell_length_a       7.56806
_cell_length_b       9.60851
_cell_length_c       10.4295
_cell_angle_alpha    117.331
_cell_angle_beta     100.34
_cell_angle_gamma    89.9954

_symmetry_space_group_name_H-M    "P 1"
_symmetry_int_tables_number       1

loop_
  _symmetry_equiv_pos_as_xyz
  'x, y, z'

loop_
  _atom_site_label
  _atom_site_occupancy
  _atom_site_fract_x
  _atom_site_fract_y
  _atom_site_fract_z
  _atom_site_thermal_displace_type
  _atom_site_B_iso_or_equiv
  _atom_site_type_symbol
  Cd1      1.0000 0.75002  0.42394  0.00028  Biso   1.000  Cd
  Cd2      1.0000 0.24999  0.57606  0.99971  Biso   1.000  Cd
  H1       1.0000 0.05019  0.47678  0.28621  Biso   1.000  H
  H2       1.0000 0.44995  0.19227  0.71458  Biso   1.000  H
  H3       1.0000 0.94982  0.52322  0.71379  Biso   1.000  H
  H4       1.0000 0.55004  0.80773  0.28542  Biso   1.000  H
  H5       1.0000 0.16371  0.45953  0.55272  Biso   1.000  H
  H6       1.0000 0.33640  0.90944  0.44768  Biso   1.000  H
  H7       1.0000 0.83631  0.54048  0.44728  Biso   1.000  H
  H8       1.0000 0.66360  0.09056  0.55233  Biso   1.000  H
  H9       1.0000 0.33556  0.40742  0.44955  Biso   1.000  H
  H10      1.0000 0.16458  0.96030  0.55100  Biso   1.000  H
  H11      1.0000 0.66445  0.59258  0.55045  Biso   1.000  H
  H12      1.0000 0.83541  0.03970  0.44900  Biso   1.000  H
  H13      1.0000 0.26248  0.28196  0.51691  Biso   1.000  H
  H14      1.0000 0.23744  0.76762  0.48347  Biso   1.000  H
  H15      1.0000 0.73753  0.71804  0.48308  Biso   1.000  H
  H16      1.0000 0.76256  0.23237  0.51653  Biso   1.000  H
  H17      1.0000 0.07181  0.04725  0.32347  Biso   1.000  H
  H18      1.0000 0.42851  0.72533  0.67644  Biso   1.000  H
  H19      1.0000 0.92819  0.95275  0.67654  Biso   1.000  H
  H20      1.0000 0.57149  0.27467  0.32356  Biso   1.000  H
  H21      1.0000 0.84400  0.92059  0.09560  Biso   1.000  H
  H22      1.0000 0.65609  0.82530  0.90429  Biso   1.000  H
  H23      1.0000 0.15600  0.07941  0.90440  Biso   1.000  H
  H24      1.0000 0.34390  0.17470  0.09571  Biso   1.000  H
  C1       1.0000 0.00610  0.35375  0.25002  Biso   1.000  C
  C2       1.0000 0.49401  0.10521  0.75063  Biso   1.000  C
  C3       1.0000 0.99391  0.64624  0.74998  Biso   1.000  C
  C4       1.0000 0.50598  0.89479  0.24937  Biso   1.000  C
  C5       1.0000 0.07905  0.27558  0.32940  Biso   1.000  C
  C6       1.0000 0.42114  0.94794  0.67100  Biso   1.000  C
  C7       1.0000 0.92096  0.72442  0.67060  Biso   1.000  C
  C8       1.0000 0.57885  0.05206  0.32901  Biso   1.000  C
  C9       1.0000 0.21719  0.35942  0.46906  Biso   1.000  C
  C10      1.0000 0.28294  0.89277  0.53140  Biso   1.000  C
  C11      1.0000 0.78281  0.64058  0.53094  Biso   1.000  C
  C12      1.0000 0.71706  0.10723  0.46861  Biso   1.000  C
  C13      1.0000 0.01779  0.11668  0.26949  Biso   1.000  C
  C14      1.0000 0.48246  0.84854  0.73062  Biso   1.000  C
  C15      1.0000 0.98221  0.88332  0.73051  Biso   1.000  C
  C16      1.0000 0.51753  0.15146  0.26939  Biso   1.000  C
  C17      1.0000 0.88846  0.04463  0.13975  Biso   1.000  C
  C18      1.0000 0.61163  0.90560  0.86044  Biso   1.000  C
  C19      1.0000 0.11153  0.95537  0.86025  Biso   1.000  C
  C20      1.0000 0.38837  0.09440  0.13956  Biso   1.000  C
  C21      1.0000 0.81981  0.13256  0.06910  Biso   1.000  C
  C22      1.0000 0.68026  0.06399  0.93138  Biso   1.000  C
  C23      1.0000 0.18019  0.86744  0.93090  Biso   1.000  C
  C24      1.0000 0.31974  0.93601  0.06862  Biso   1.000  C
  Br1      1.0000 0.96886  0.68964  0.17985  Biso   1.000  Br
  Br2      1.0000 0.53173  0.51084  0.82045  Biso   1.000  Br
  Br3      1.0000 0.03114  0.31036  0.82015  Biso   1.000  Br
  Br4      1.0000 0.46828  0.48915  0.17955  Biso   1.000  Br
  N1       1.0000 0.88068  0.28524  0.12578  Biso   1.000  N
  N2       1.0000 0.61942  0.16032  0.87486  Biso   1.000  N
  N3       1.0000 0.11932  0.71476  0.87421  Biso   1.000  N
  N4       1.0000 0.38057  0.83967  0.12515  Biso   1.000  N
