data_image0
_cell_length_a       3.55402
_cell_length_b       10.598
_cell_length_c       17.8766
_cell_angle_alpha    90.0001
_cell_angle_beta     90
_cell_angle_gamma    91.1606

_symmetry_space_group_name_H-M    "P 1"
_symmetry_int_tables_number       1

loop_
  _symmetry_equiv_pos_as_xyz
  'x, y, z'

loop_
  _atom_site_label
  _atom_site_occupancy
  _atom_site_fract_x
  _atom_site_fract_y
  _atom_site_fract_z
  _atom_site_thermal_displace_type
  _atom_site_B_iso_or_equiv
  _atom_site_type_symbol
  Na1      1.0000 0.78790  0.13248  0.53230  Biso   1.000  Na
  Na2      1.0000 0.71210  0.36753  0.03230  Biso   1.000  Na
  Na3      1.0000 0.21209  0.86753  0.46770  Biso   1.000  Na
  Na4      1.0000 0.28790  0.63248  0.96770  Biso   1.000  Na
  H1       1.0000 0.37399  0.21396  0.64415  Biso   1.000  H
  H2       1.0000 0.12601  0.28604  0.14415  Biso   1.000  H
  H3       1.0000 0.62601  0.78604  0.35585  Biso   1.000  H
  H4       1.0000 0.87399  0.71396  0.85585  Biso   1.000  H
  H5       1.0000 0.39319  0.06424  0.64509  Biso   1.000  H
  H6       1.0000 0.10681  0.43576  0.14509  Biso   1.000  H
  H7       1.0000 0.60681  0.93576  0.35491  Biso   1.000  H
  H8       1.0000 0.89320  0.56424  0.85491  Biso   1.000  H
  H9       1.0000 0.59732  0.48870  0.24042  Biso   1.000  H
  H10      1.0000 0.90268  0.01130  0.74042  Biso   1.000  H
  H11      1.0000 0.40268  0.51130  0.75958  Biso   1.000  H
  H12      1.0000 0.09732  0.98870  0.25958  Biso   1.000  H
  H13      1.0000 0.11750  0.55468  0.44512  Biso   1.000  H
  H14      1.0000 0.38250  0.94532  0.94512  Biso   1.000  H
  H15      1.0000 0.88249  0.44532  0.55488  Biso   1.000  H
  H16      1.0000 0.61751  0.05468  0.05488  Biso   1.000  H
  H17      1.0000 0.55192  0.26387  0.25831  Biso   1.000  H
  H18      1.0000 0.94808  0.23613  0.75831  Biso   1.000  H
  H19      1.0000 0.44807  0.73613  0.74169  Biso   1.000  H
  H20      1.0000 0.05193  0.76387  0.24169  Biso   1.000  H
  C1       1.0000 0.30997  0.13517  0.37805  Biso   1.000  C
  C2       1.0000 0.19003  0.36483  0.87805  Biso   1.000  C
  C3       1.0000 0.69002  0.86483  0.62196  Biso   1.000  C
  C4       1.0000 0.80998  0.63517  0.12195  Biso   1.000  C
  C5       1.0000 0.29392  0.27557  0.36654  Biso   1.000  C
  C6       1.0000 0.20609  0.22443  0.86654  Biso   1.000  C
  C7       1.0000 0.70607  0.72443  0.63346  Biso   1.000  C
  C8       1.0000 0.79392  0.77557  0.13346  Biso   1.000  C
  C9       1.0000 0.44351  0.32573  0.30178  Biso   1.000  C
  C10      1.0000 0.05649  0.17427  0.80178  Biso   1.000  C
  C11      1.0000 0.55648  0.67427  0.69822  Biso   1.000  C
  C12      1.0000 0.94351  0.82573  0.19822  Biso   1.000  C
  C13      1.0000 0.34996  0.53968  0.33968  Biso   1.000  C
  C14      1.0000 0.15005  0.96032  0.83968  Biso   1.000  C
  C15      1.0000 0.65005  0.46032  0.66032  Biso   1.000  C
  C16      1.0000 0.84995  0.03968  0.16032  Biso   1.000  C
  C17      1.0000 0.15979  0.36242  0.42279  Biso   1.000  C
  C18      1.0000 0.34021  0.13758  0.92279  Biso   1.000  C
  C19      1.0000 0.84019  0.63759  0.57720  Biso   1.000  C
  C20      1.0000 0.65980  0.86242  0.07721  Biso   1.000  C
  N1       1.0000 0.47050  0.45144  0.28869  Biso   1.000  N
  N2       1.0000 0.02951  0.04856  0.78869  Biso   1.000  N
  N3       1.0000 0.52950  0.54856  0.71131  Biso   1.000  N
  N4       1.0000 0.97050  0.95144  0.21131  Biso   1.000  N
  N5       1.0000 0.20369  0.48988  0.40486  Biso   1.000  N
  N6       1.0000 0.29631  0.01012  0.90486  Biso   1.000  N
  N7       1.0000 0.79630  0.51012  0.59514  Biso   1.000  N
  N8       1.0000 0.70370  0.98988  0.09514  Biso   1.000  N
  O1       1.0000 0.39271  0.06812  0.32121  Biso   1.000  O
  O2       1.0000 0.10729  0.43188  0.82121  Biso   1.000  O
  O3       1.0000 0.60728  0.93188  0.67879  Biso   1.000  O
  O4       1.0000 0.89271  0.56812  0.17879  Biso   1.000  O
  O5       1.0000 0.26068  0.09236  0.44362  Biso   1.000  O
  O6       1.0000 0.23932  0.40764  0.94362  Biso   1.000  O
  O7       1.0000 0.73931  0.90764  0.55638  Biso   1.000  O
  O8       1.0000 0.76069  0.59236  0.05638  Biso   1.000  O
  O9       1.0000 0.37028  0.65447  0.32748  Biso   1.000  O
  O10      1.0000 0.12972  0.84553  0.82748  Biso   1.000  O
  O11      1.0000 0.62973  0.34553  0.67252  Biso   1.000  O
  O12      1.0000 0.87028  0.15447  0.17252  Biso   1.000  O
  O13      1.0000 0.00552  0.33512  0.48399  Biso   1.000  O
  O14      1.0000 0.49448  0.16488  0.98399  Biso   1.000  O
  O15      1.0000 0.99447  0.66488  0.51601  Biso   1.000  O
  O16      1.0000 0.50552  0.83512  0.01601  Biso   1.000  O
  O17      1.0000 0.26774  0.13713  0.62087  Biso   1.000  O
  O18      1.0000 0.23226  0.36287  0.12087  Biso   1.000  O
  O19      1.0000 0.73226  0.86287  0.37913  Biso   1.000  O
  O20      1.0000 0.76774  0.63713  0.87913  Biso   1.000  O
