data_image0
_cell_length_a       9.22235
_cell_length_b       9.66376
_cell_length_c       9.66371
_cell_angle_alpha    95.6806
_cell_angle_beta     99.8442
_cell_angle_gamma    99.8431

_symmetry_space_group_name_H-M    "P 1"
_symmetry_int_tables_number       1

loop_
  _symmetry_equiv_pos_as_xyz
  'x, y, z'

loop_
  _atom_site_label
  _atom_site_occupancy
  _atom_site_fract_x
  _atom_site_fract_y
  _atom_site_fract_z
  _atom_site_thermal_displace_type
  _atom_site_B_iso_or_equiv
  _atom_site_type_symbol
  Ag1      1.0000 0.94449  0.11032  0.93438  Biso   1.000  Ag
  Ag2      1.0000 0.55552  0.06562  0.88969  Biso   1.000  Ag
  Ag3      1.0000 0.05552  0.88968  0.06562  Biso   1.000  Ag
  Ag4      1.0000 0.44448  0.93438  0.11031  Biso   1.000  Ag
  H1       1.0000 0.41027  0.28637  0.76062  Biso   1.000  H
  H2       1.0000 0.08973  0.23938  0.71363  Biso   1.000  H
  H3       1.0000 0.58973  0.71363  0.23938  Biso   1.000  H
  H4       1.0000 0.91027  0.76062  0.28637  Biso   1.000  H
  H5       1.0000 0.34802  0.40620  0.54487  Biso   1.000  H
  H6       1.0000 0.15198  0.45513  0.59380  Biso   1.000  H
  H7       1.0000 0.65197  0.59379  0.45513  Biso   1.000  H
  H8       1.0000 0.84802  0.54487  0.40620  Biso   1.000  H
  H9       1.0000 0.47168  0.35919  0.33902  Biso   1.000  H
  H10      1.0000 0.02832  0.66098  0.64082  Biso   1.000  H
  H11      1.0000 0.52832  0.64081  0.66098  Biso   1.000  H
  H12      1.0000 0.97168  0.33902  0.35918  Biso   1.000  H
  H13      1.0000 0.74223  0.99973  0.67007  Biso   1.000  H
  H14      1.0000 0.75778  0.32993  0.00027  Biso   1.000  H
  H15      1.0000 0.25778  0.00027  0.32993  Biso   1.000  H
  H16      1.0000 0.24222  0.67007  0.99973  Biso   1.000  H
  H17      1.0000 0.87319  0.95139  0.47091  Biso   1.000  H
  H18      1.0000 0.62681  0.52910  0.04860  Biso   1.000  H
  H19      1.0000 0.12682  0.04861  0.52910  Biso   1.000  H
  H20      1.0000 0.37319  0.47091  0.95140  Biso   1.000  H
  H21      1.0000 0.65371  0.23586  0.23432  Biso   1.000  H
  H22      1.0000 0.84629  0.76568  0.76414  Biso   1.000  H
  H23      1.0000 0.34629  0.76414  0.76568  Biso   1.000  H
  H24      1.0000 0.15371  0.23432  0.23586  Biso   1.000  H
  C1       1.0000 0.46094  0.26672  0.66811  Biso   1.000  C
  C2       1.0000 0.03907  0.33189  0.73328  Biso   1.000  C
  C3       1.0000 0.53906  0.73328  0.33189  Biso   1.000  C
  C4       1.0000 0.96093  0.66811  0.26672  Biso   1.000  C
  C5       1.0000 0.42691  0.33432  0.54723  Biso   1.000  C
  C6       1.0000 0.07309  0.45277  0.66568  Biso   1.000  C
  C7       1.0000 0.57309  0.66568  0.45277  Biso   1.000  C
  C8       1.0000 0.92691  0.54723  0.33432  Biso   1.000  C
  C9       1.0000 0.49559  0.30895  0.43421  Biso   1.000  C
  C10      1.0000 0.00441  0.56578  0.69106  Biso   1.000  C
  C11      1.0000 0.50440  0.69105  0.56578  Biso   1.000  C
  C12      1.0000 0.99559  0.43422  0.30894  Biso   1.000  C
  C13      1.0000 0.59775  0.21516  0.44178  Biso   1.000  C
  C14      1.0000 0.90226  0.55822  0.78485  Biso   1.000  C
  C15      1.0000 0.40225  0.78484  0.55821  Biso   1.000  C
  C16      1.0000 0.09774  0.44178  0.21515  Biso   1.000  C
  C17      1.0000 0.62431  0.14859  0.56766  Biso   1.000  C
  C18      1.0000 0.87569  0.43234  0.85141  Biso   1.000  C
  C19      1.0000 0.37569  0.85141  0.43234  Biso   1.000  C
  C20      1.0000 0.12431  0.56766  0.14859  Biso   1.000  C
  C21      1.0000 0.72413  0.05197  0.57530  Biso   1.000  C
  C22      1.0000 0.77588  0.42470  0.94803  Biso   1.000  C
  C23      1.0000 0.27587  0.94803  0.42470  Biso   1.000  C
  C24      1.0000 0.22412  0.57530  0.05197  Biso   1.000  C
  C25      1.0000 0.79577  0.02488  0.46445  Biso   1.000  C
  C26      1.0000 0.70423  0.53555  0.97512  Biso   1.000  C
  C27      1.0000 0.20423  0.97512  0.53555  Biso   1.000  C
  C28      1.0000 0.29577  0.46445  0.02488  Biso   1.000  C
  C29      1.0000 0.77168  0.09191  0.34028  Biso   1.000  C
  C30      1.0000 0.72832  0.65972  0.90809  Biso   1.000  C
  C31      1.0000 0.22832  0.90809  0.65972  Biso   1.000  C
  C32      1.0000 0.27168  0.34028  0.09191  Biso   1.000  C
  C33      1.0000 0.67278  0.18484  0.32972  Biso   1.000  C
  C34      1.0000 0.82723  0.67028  0.81517  Biso   1.000  C
  C35      1.0000 0.32722  0.81516  0.67028  Biso   1.000  C
  C36      1.0000 0.17277  0.32972  0.18484  Biso   1.000  C
  C37      1.0000 0.85230  0.06397  0.22059  Biso   1.000  C
  C38      1.0000 0.64770  0.77941  0.93603  Biso   1.000  C
  C39      1.0000 0.14770  0.93603  0.77941  Biso   1.000  C
  C40      1.0000 0.35230  0.22059  0.06397  Biso   1.000  C
  N1       1.0000 0.55533  0.17705  0.67916  Biso   1.000  N
  N2       1.0000 0.94467  0.32084  0.82295  Biso   1.000  N
  N3       1.0000 0.44467  0.82295  0.32084  Biso   1.000  N
  N4       1.0000 0.05533  0.67916  0.17705  Biso   1.000  N
  O1       1.0000 0.82697  0.13226  0.11557  Biso   1.000  O
  O2       1.0000 0.67303  0.88443  0.86774  Biso   1.000  O
  O3       1.0000 0.17303  0.86774  0.88443  Biso   1.000  O
  O4       1.0000 0.32697  0.11557  0.13226  Biso   1.000  O
  O5       1.0000 0.94099  0.97675  0.23496  Biso   1.000  O
  O6       1.0000 0.55902  0.76504  0.02325  Biso   1.000  O
  O7       1.0000 0.05902  0.02325  0.76504  Biso   1.000  O
  O8       1.0000 0.44098  0.23496  0.97675  Biso   1.000  O
