data_image0
_cell_length_a       6.17876
_cell_length_b       8.54524
_cell_length_c       13.135
_cell_angle_alpha    97.3744
_cell_angle_beta     90.0001
_cell_angle_gamma    90.0001

_symmetry_space_group_name_H-M    "P 1"
_symmetry_int_tables_number       1

loop_
  _symmetry_equiv_pos_as_xyz
  'x, y, z'

loop_
  _atom_site_label
  _atom_site_occupancy
  _atom_site_fract_x
  _atom_site_fract_y
  _atom_site_fract_z
  _atom_site_thermal_displace_type
  _atom_site_B_iso_or_equiv
  _atom_site_type_symbol
  Na1      1.0000 0.38544  0.69132  0.03893  Biso   1.000  Na
  Na2      1.0000 0.88544  0.80869  0.96107  Biso   1.000  Na
  Na3      1.0000 0.61455  0.30868  0.96107  Biso   1.000  Na
  Na4      1.0000 0.11456  0.19132  0.03893  Biso   1.000  Na
  Zn1      1.0000 1.00000  0.50000  0.50000  Biso   1.000  Zn
  Zn2      1.0000 0.50000  1.00000  0.50000  Biso   1.000  Zn
  H1       1.0000 0.27008  0.60297  0.38227  Biso   1.000  H
  H2       1.0000 0.77008  0.89703  0.61773  Biso   1.000  H
  H3       1.0000 0.72992  0.39703  0.61773  Biso   1.000  H
  H4       1.0000 0.22992  0.10297  0.38227  Biso   1.000  H
  H5       1.0000 0.12586  0.47944  0.29753  Biso   1.000  H
  H6       1.0000 0.62586  0.02056  0.70247  Biso   1.000  H
  H7       1.0000 0.87414  0.52056  0.70247  Biso   1.000  H
  H8       1.0000 0.37414  0.97944  0.29753  Biso   1.000  H
  H9       1.0000 0.70490  0.75389  0.25096  Biso   1.000  H
  H10      1.0000 0.20490  0.74610  0.74904  Biso   1.000  H
  H11      1.0000 0.29510  0.24610  0.74904  Biso   1.000  H
  H12      1.0000 0.79510  0.25390  0.25096  Biso   1.000  H
  H13      1.0000 0.70455  0.56029  0.29179  Biso   1.000  H
  H14      1.0000 0.20455  0.93970  0.70821  Biso   1.000  H
  H15      1.0000 0.29545  0.43971  0.70822  Biso   1.000  H
  H16      1.0000 0.79545  0.06029  0.29178  Biso   1.000  H
  H17      1.0000 0.09485  0.78320  0.29838  Biso   1.000  H
  H18      1.0000 0.59486  0.71680  0.70162  Biso   1.000  H
  H19      1.0000 0.90515  0.21680  0.70162  Biso   1.000  H
  H20      1.0000 0.40514  0.28320  0.29838  Biso   1.000  H
  C1       1.0000 0.80390  0.65081  0.26175  Biso   1.000  C
  C2       1.0000 0.30390  0.84918  0.73826  Biso   1.000  C
  C3       1.0000 0.19609  0.34919  0.73826  Biso   1.000  C
  C4       1.0000 0.69609  0.15081  0.26174  Biso   1.000  C
  C5       1.0000 0.99192  0.70065  0.33453  Biso   1.000  C
  C6       1.0000 0.49192  0.79936  0.66547  Biso   1.000  C
  C7       1.0000 0.00808  0.29936  0.66547  Biso   1.000  C
  C8       1.0000 0.50808  0.20064  0.33453  Biso   1.000  C
  C9       1.0000 0.89539  0.79561  0.43209  Biso   1.000  C
  C10      1.0000 0.39539  0.70441  0.56791  Biso   1.000  C
  C11      1.0000 0.10462  0.20439  0.56792  Biso   1.000  C
  C12      1.0000 0.60463  0.29560  0.43208  Biso   1.000  C
  S1       1.0000 0.89040  0.57030  0.13640  Biso   1.000  S
  S2       1.0000 0.39040  0.92971  0.86360  Biso   1.000  S
  S3       1.0000 0.10960  0.42970  0.86360  Biso   1.000  S
  S4       1.0000 0.60960  0.07029  0.13640  Biso   1.000  S
  N1       1.0000 0.11748  0.56440  0.35992  Biso   1.000  N
  N2       1.0000 0.61748  0.93560  0.64008  Biso   1.000  N
  N3       1.0000 0.88252  0.43560  0.64008  Biso   1.000  N
  N4       1.0000 0.38252  0.06440  0.35992  Biso   1.000  N
  O1       1.0000 0.69201  0.54809  0.07322  Biso   1.000  O
  O2       1.0000 0.19201  0.95191  0.92678  Biso   1.000  O
  O3       1.0000 0.30798  0.45191  0.92678  Biso   1.000  O
  O4       1.0000 0.80799  0.04809  0.07322  Biso   1.000  O
  O5       1.0000 0.03597  0.68872  0.10000  Biso   1.000  O
  O6       1.0000 0.53597  0.81128  0.90001  Biso   1.000  O
  O7       1.0000 0.96402  0.31129  0.90001  Biso   1.000  O
  O8       1.0000 0.46402  0.18872  0.10000  Biso   1.000  O
  O9       1.0000 0.00053  0.42008  0.14692  Biso   1.000  O
  O10      1.0000 0.50052  0.07992  0.85308  Biso   1.000  O
  O11      1.0000 0.99947  0.57992  0.85308  Biso   1.000  O
  O12      1.0000 0.49947  0.92009  0.14692  Biso   1.000  O
  O13      1.0000 0.90289  0.73646  0.51609  Biso   1.000  O
  O14      1.0000 0.40289  0.76353  0.48391  Biso   1.000  O
  O15      1.0000 0.09712  0.26354  0.48390  Biso   1.000  O
  O16      1.0000 0.59711  0.23646  0.51609  Biso   1.000  O
  O17      1.0000 0.80999  0.92615  0.41993  Biso   1.000  O
  O18      1.0000 0.30997  0.57385  0.58008  Biso   1.000  O
  O19      1.0000 0.19001  0.07386  0.58007  Biso   1.000  O
  O20      1.0000 0.69003  0.42614  0.41992  Biso   1.000  O
