data_image0
_cell_length_a       6.92788
_cell_length_b       8.44593
_cell_length_c       12.0906
_cell_angle_alpha    85.2752
_cell_angle_beta     78.3578
_cell_angle_gamma    65.7974

_symmetry_space_group_name_H-M    "P 1"
_symmetry_int_tables_number       1

loop_
  _symmetry_equiv_pos_as_xyz
  'x, y, z'

loop_
  _atom_site_label
  _atom_site_occupancy
  _atom_site_fract_x
  _atom_site_fract_y
  _atom_site_fract_z
  _atom_site_thermal_displace_type
  _atom_site_B_iso_or_equiv
  _atom_site_type_symbol
  K1       1.0000 0.07551  0.94996  0.45869  Biso   1.000  K
  K2       1.0000 0.02485  0.04985  0.95864  Biso   1.000  K
  H1       1.0000 0.05265  0.98136  0.21132  Biso   1.000  H
  H2       1.0000 0.03383  0.01904  0.71140  Biso   1.000  H
  H3       1.0000 0.14139  0.33574  0.44066  Biso   1.000  H
  H4       1.0000 0.47714  0.66429  0.94075  Biso   1.000  H
  H5       1.0000 0.54787  0.11762  0.14423  Biso   1.000  H
  H6       1.0000 0.66549  0.88242  0.64440  Biso   1.000  H
  H7       1.0000 0.42344  0.14360  0.76673  Biso   1.000  H
  H8       1.0000 0.56695  0.85650  0.26659  Biso   1.000  H
  H9       1.0000 0.61999  0.33119  0.46164  Biso   1.000  H
  H10      1.0000 0.95091  0.66861  0.96148  Biso   1.000  H
  H11      1.0000 0.07257  0.61526  0.37231  Biso   1.000  H
  H12      1.0000 0.68818  0.38483  0.87238  Biso   1.000  H
  H13      1.0000 0.20561  0.42738  0.83990  Biso   1.000  H
  H14      1.0000 0.63305  0.57273  0.33984  Biso   1.000  H
  C1       1.0000 0.22606  0.71992  0.16872  Biso   1.000  C
  C2       1.0000 0.94629  0.28012  0.66874  Biso   1.000  C
  C3       1.0000 0.27797  0.53898  0.20918  Biso   1.000  C
  C4       1.0000 0.81701  0.46105  0.70919  Biso   1.000  C
  C5       1.0000 0.18456  0.50967  0.31611  Biso   1.000  C
  C6       1.0000 0.69438  0.49039  0.81617  Biso   1.000  C
  C7       1.0000 0.35389  0.20092  0.29789  Biso   1.000  C
  C8       1.0000 0.55473  0.79913  0.79801  Biso   1.000  C
  C9       1.0000 0.42216  0.38852  0.13915  Biso   1.000  C
  C10      1.0000 0.81059  0.61149  0.63919  Biso   1.000  C
  C11      1.0000 0.14552  0.73486  0.73745  Biso   1.000  C
  C12      1.0000 0.88049  0.26518  0.23745  Biso   1.000  C
  C13      1.0000 0.27779  0.55898  0.68649  Biso   1.000  C
  C14      1.0000 0.83678  0.44099  0.18643  Biso   1.000  C
  C15      1.0000 0.29337  0.41571  0.75294  Biso   1.000  C
  C16      1.0000 0.70900  0.58433  0.25284  Biso   1.000  C
  C17      1.0000 0.53952  0.21517  0.60872  Biso   1.000  C
  C18      1.0000 0.75430  0.78471  0.10855  Biso   1.000  C
  C19      1.0000 0.39488  0.53063  0.56992  Biso   1.000  C
  C20      1.0000 0.92550  0.46922  0.06982  Biso   1.000  C
  N1       1.0000 0.21980  0.34975  0.35959  Biso   1.000  N
  N2       1.0000 0.56964  0.65030  0.85969  Biso   1.000  N
  N3       1.0000 0.44494  0.22922  0.19135  Biso   1.000  N
  N4       1.0000 0.67406  0.77083  0.69145  Biso   1.000  N
  N5       1.0000 0.41603  0.25112  0.71584  Biso   1.000  N
  N6       1.0000 0.66692  0.74889  0.21571  Biso   1.000  N
  N7       1.0000 0.52397  0.35653  0.54206  Biso   1.000  N
  N8       1.0000 0.88019  0.64329  0.04190  Biso   1.000  N
  O1       1.0000 0.09975  0.83934  0.24487  Biso   1.000  O
  O2       1.0000 0.93947  0.16080  0.74496  Biso   1.000  O
  O3       1.0000 0.29340  0.75618  0.07025  Biso   1.000  O
  O4       1.0000 0.05002  0.24370  0.57031  Biso   1.000  O
  O5       1.0000 0.38563  0.05304  0.33727  Biso   1.000  O
  O6       1.0000 0.43840  0.94700  0.83745  Biso   1.000  O
  O7       1.0000 0.52390  0.38787  0.04218  Biso   1.000  O
  O8       1.0000 0.91154  0.61210  0.54218  Biso   1.000  O
  O9       1.0000 0.13893  0.86545  0.67222  Biso   1.000  O
  O10      1.0000 0.00466  0.13453  0.17221  Biso   1.000  O
  O11      1.0000 0.05221  0.75001  0.83932  Biso   1.000  O
  O12      1.0000 0.80233  0.25010  0.33931  Biso   1.000  O
  O13      1.0000 0.65876  0.06466  0.57539  Biso   1.000  O
  O14      1.0000 0.72289  0.93518  0.07515  Biso   1.000  O
  O15      1.0000 0.39345  0.64062  0.49498  Biso   1.000  O
  O16      1.0000 0.03427  0.35913  0.99491  Biso   1.000  O
