data_image0
_cell_length_a       5.0966
_cell_length_b       8.12609
_cell_length_c       9.71454
_cell_angle_alpha    111.406
_cell_angle_beta     101.131
_cell_angle_gamma    92.5229

_symmetry_space_group_name_H-M    "P 1"
_symmetry_int_tables_number       1

loop_
  _symmetry_equiv_pos_as_xyz
  'x, y, z'

loop_
  _atom_site_label
  _atom_site_occupancy
  _atom_site_fract_x
  _atom_site_fract_y
  _atom_site_fract_z
  _atom_site_thermal_displace_type
  _atom_site_B_iso_or_equiv
  _atom_site_type_symbol
  Rb1      1.0000 0.00000  0.00000  0.00000  Biso   1.000  Rb
  H1       1.0000 1.00000  0.50000  0.50000  Biso   1.000  H
  H2       1.0000 0.84647  0.39919  0.02500  Biso   1.000  H
  H3       1.0000 0.15354  0.60081  0.97500  Biso   1.000  H
  H4       1.0000 0.76806  0.88574  0.32694  Biso   1.000  H
  H5       1.0000 0.23194  0.11426  0.67307  Biso   1.000  H
  H6       1.0000 0.45449  0.76279  0.42707  Biso   1.000  H
  H7       1.0000 0.54551  0.23721  0.57293  Biso   1.000  H
  C1       1.0000 0.25760  0.42380  0.34496  Biso   1.000  C
  C2       1.0000 0.74240  0.57619  0.65503  Biso   1.000  C
  C3       1.0000 0.45959  0.49469  0.27934  Biso   1.000  C
  C4       1.0000 0.54041  0.50531  0.72066  Biso   1.000  C
  C5       1.0000 0.57785  0.38204  0.15830  Biso   1.000  C
  C6       1.0000 0.42215  0.61796  0.84170  Biso   1.000  C
  C7       1.0000 0.53686  0.67435  0.33604  Biso   1.000  C
  C8       1.0000 0.46314  0.32565  0.66396  Biso   1.000  C
  C9       1.0000 0.84403  0.65414  0.17282  Biso   1.000  C
  C10      1.0000 0.15597  0.34586  0.82718  Biso   1.000  C
  N1       1.0000 0.76389  0.47554  0.11416  Biso   1.000  N
  N2       1.0000 0.23611  0.52447  0.88584  Biso   1.000  N
  N3       1.0000 0.71909  0.75137  0.28504  Biso   1.000  N
  N4       1.0000 0.28091  0.24863  0.71496  Biso   1.000  N
  O1       1.0000 0.20032  0.26119  0.31064  Biso   1.000  O
  O2       1.0000 0.79968  0.73881  0.68936  Biso   1.000  O
  O3       1.0000 0.15439  0.55032  0.43836  Biso   1.000  O
  O4       1.0000 0.84561  0.44968  0.56164  Biso   1.000  O
  O5       1.0000 0.53062  0.21856  0.08916  Biso   1.000  O
  O6       1.0000 0.46939  0.78144  0.91084  Biso   1.000  O
  O7       1.0000 0.01363  0.72703  0.12938  Biso   1.000  O
  O8       1.0000 0.98637  0.27297  0.87062  Biso   1.000  O
