data_image0
_cell_length_a       5.06878
_cell_length_b       7.8368
_cell_length_c       18.864
_cell_angle_alpha    96.895
_cell_angle_beta     90.0001
_cell_angle_gamma    89.9999

_symmetry_space_group_name_H-M    "P 1"
_symmetry_int_tables_number       1

loop_
  _symmetry_equiv_pos_as_xyz
  'x, y, z'

loop_
  _atom_site_label
  _atom_site_occupancy
  _atom_site_fract_x
  _atom_site_fract_y
  _atom_site_fract_z
  _atom_site_thermal_displace_type
  _atom_site_B_iso_or_equiv
  _atom_site_type_symbol
  Rb1      1.0000 0.35200  0.81137  0.78101  Biso   1.000  Rb
  Rb2      1.0000 0.85200  0.18863  0.71899  Biso   1.000  Rb
  Rb3      1.0000 0.64800  0.18863  0.21899  Biso   1.000  Rb
  Rb4      1.0000 0.14800  0.81137  0.28101  Biso   1.000  Rb
  H1       1.0000 0.35299  0.37935  0.72451  Biso   1.000  H
  H2       1.0000 0.85299  0.62065  0.77549  Biso   1.000  H
  H3       1.0000 0.64701  0.62065  0.27549  Biso   1.000  H
  H4       1.0000 0.14701  0.37935  0.22451  Biso   1.000  H
  H5       1.0000 0.22463  0.48631  0.66320  Biso   1.000  H
  H6       1.0000 0.72463  0.51369  0.83679  Biso   1.000  H
  H7       1.0000 0.77537  0.51369  0.33680  Biso   1.000  H
  H8       1.0000 0.27537  0.48631  0.16320  Biso   1.000  H
  H9       1.0000 0.12755  0.98699  0.55640  Biso   1.000  H
  H10      1.0000 0.62755  0.01302  0.94360  Biso   1.000  H
  H11      1.0000 0.87245  0.01302  0.44361  Biso   1.000  H
  H12      1.0000 0.37245  0.98698  0.05640  Biso   1.000  H
  H13      1.0000 0.52295  0.66054  0.40664  Biso   1.000  H
  H14      1.0000 0.02294  0.33946  0.09336  Biso   1.000  H
  H15      1.0000 0.47706  0.33947  0.59336  Biso   1.000  H
  H16      1.0000 0.97705  0.66053  0.90664  Biso   1.000  H
  H17      1.0000 0.82065  0.58150  0.49214  Biso   1.000  H
  H18      1.0000 0.32065  0.41850  0.00786  Biso   1.000  H
  H19      1.0000 0.17935  0.41850  0.50786  Biso   1.000  H
  H20      1.0000 0.67934  0.58150  0.99214  Biso   1.000  H
  C1       1.0000 0.84371  0.68019  0.63477  Biso   1.000  C
  C2       1.0000 0.34371  0.31981  0.86523  Biso   1.000  C
  C3       1.0000 0.15629  0.31981  0.36523  Biso   1.000  C
  C4       1.0000 0.65629  0.68019  0.13477  Biso   1.000  C
  C5       1.0000 0.65260  0.74201  0.58161  Biso   1.000  C
  C6       1.0000 0.15260  0.25798  0.91839  Biso   1.000  C
  C7       1.0000 0.34740  0.25798  0.41838  Biso   1.000  C
  C8       1.0000 0.84740  0.74202  0.08161  Biso   1.000  C
  C9       1.0000 0.45004  0.87167  0.60023  Biso   1.000  C
  C10      1.0000 0.95004  0.12833  0.89977  Biso   1.000  C
  C11      1.0000 0.54996  0.12832  0.39977  Biso   1.000  C
  C12      1.0000 0.04996  0.87168  0.10023  Biso   1.000  C
  C13      1.0000 0.28645  0.82110  0.47580  Biso   1.000  C
  C14      1.0000 0.78645  0.17890  0.02420  Biso   1.000  C
  C15      1.0000 0.71355  0.17891  0.52420  Biso   1.000  C
  C16      1.0000 0.21355  0.82110  0.97580  Biso   1.000  C
  C17      1.0000 0.66740  0.67316  0.51125  Biso   1.000  C
  C18      1.0000 0.16740  0.32684  0.98875  Biso   1.000  C
  C19      1.0000 0.33260  0.32684  0.48875  Biso   1.000  C
  C20      1.0000 0.83260  0.67316  0.01125  Biso   1.000  C
  N1       1.0000 0.27645  0.89643  0.54475  Biso   1.000  N
  N2       1.0000 0.77646  0.10357  0.95525  Biso   1.000  N
  N3       1.0000 0.72354  0.10357  0.45525  Biso   1.000  N
  N4       1.0000 0.22354  0.89643  0.04475  Biso   1.000  N
  N5       1.0000 0.49529  0.71129  0.46009  Biso   1.000  N
  N6       1.0000 0.99529  0.28872  0.03991  Biso   1.000  N
  N7       1.0000 0.50471  0.28872  0.53991  Biso   1.000  N
  N8       1.0000 0.00471  0.71128  0.96009  Biso   1.000  N
  O1       1.0000 0.83539  0.74834  0.69950  Biso   1.000  O
  O2       1.0000 0.33538  0.25166  0.80050  Biso   1.000  O
  O3       1.0000 0.16462  0.25165  0.30050  Biso   1.000  O
  O4       1.0000 0.66462  0.74835  0.19950  Biso   1.000  O
  O5       1.0000 0.00109  0.56081  0.61026  Biso   1.000  O
  O6       1.0000 0.50110  0.43919  0.88974  Biso   1.000  O
  O7       1.0000 0.99890  0.43919  0.38974  Biso   1.000  O
  O8       1.0000 0.49890  0.56081  0.11026  Biso   1.000  O
  O9       1.0000 0.41560  0.96376  0.65797  Biso   1.000  O
  O10      1.0000 0.91561  0.03624  0.84203  Biso   1.000  O
  O11      1.0000 0.58440  0.03623  0.34203  Biso   1.000  O
  O12      1.0000 0.08440  0.96377  0.15797  Biso   1.000  O
  O13      1.0000 0.12093  0.85275  0.43020  Biso   1.000  O
  O14      1.0000 0.62093  0.14726  0.06980  Biso   1.000  O
  O15      1.0000 0.87907  0.14726  0.56980  Biso   1.000  O
  O16      1.0000 0.37907  0.85275  0.93020  Biso   1.000  O
  O17      1.0000 0.39105  0.43492  0.68111  Biso   1.000  O
  O18      1.0000 0.89105  0.56508  0.81889  Biso   1.000  O
  O19      1.0000 0.60895  0.56508  0.31888  Biso   1.000  O
  O20      1.0000 0.10895  0.43492  0.18111  Biso   1.000  O
