data_image0
_cell_length_a       9.21307
_cell_length_b       9.48796
_cell_length_c       13.6591
_cell_angle_alpha    110.326
_cell_angle_beta     101.737
_cell_angle_gamma    90.0203

_symmetry_space_group_name_H-M    "P 1"
_symmetry_int_tables_number       1

loop_
  _symmetry_equiv_pos_as_xyz
  'x, y, z'

loop_
  _atom_site_label
  _atom_site_occupancy
  _atom_site_fract_x
  _atom_site_fract_y
  _atom_site_fract_z
  _atom_site_thermal_displace_type
  _atom_site_B_iso_or_equiv
  _atom_site_type_symbol
  Cu1      1.0000 0.93218  0.63424  0.62797  Biso   1.000  Cu
  Cu2      1.0000 0.56779  0.00637  0.37215  Biso   1.000  Cu
  Cu3      1.0000 0.06772  0.36592  0.37233  Biso   1.000  Cu
  Cu4      1.0000 0.43220  0.99364  0.62785  Biso   1.000  Cu
  H1       1.0000 0.19706  0.73188  0.80015  Biso   1.000  H
  H2       1.0000 0.30340  0.93184  0.19971  Biso   1.000  H
  H3       1.0000 0.80286  0.26817  0.19988  Biso   1.000  H
  H4       1.0000 0.69675  0.06831  0.80044  Biso   1.000  H
  H5       1.0000 0.35978  0.62700  0.92143  Biso   1.000  H
  H6       1.0000 0.14054  0.70578  0.07820  Biso   1.000  H
  H7       1.0000 0.64018  0.37296  0.07850  Biso   1.000  H
  H8       1.0000 0.85961  0.29439  0.92185  Biso   1.000  H
  H9       1.0000 0.06937  0.21766  0.77862  Biso   1.000  H
  H10      1.0000 0.43013  0.43877  0.22092  Biso   1.000  H
  H11      1.0000 0.93061  0.78232  0.22130  Biso   1.000  H
  H12      1.0000 0.56988  0.56124  0.77907  Biso   1.000  H
  H13      1.0000 0.91774  0.33873  0.66199  Biso   1.000  H
  H14      1.0000 0.58188  0.67642  0.33791  Biso   1.000  H
  H15      1.0000 0.08212  0.66133  0.33806  Biso   1.000  H
  H16      1.0000 0.41811  0.32357  0.66223  Biso   1.000  H
  H17      1.0000 0.42177  0.42497  0.98062  Biso   1.000  H
  H18      1.0000 0.07795  0.44442  0.01904  Biso   1.000  H
  H19      1.0000 0.57818  0.57502  0.01932  Biso   1.000  H
  H20      1.0000 0.92206  0.55571  0.98101  Biso   1.000  H
  H21      1.0000 0.37665  0.24519  0.87783  Biso   1.000  H
  H22      1.0000 0.12291  0.36755  0.12186  Biso   1.000  H
  H23      1.0000 0.62326  0.75478  0.12214  Biso   1.000  H
  H24      1.0000 0.87711  0.63259  0.87819  Biso   1.000  H
  H25      1.0000 0.16843  0.19312  0.94822  Biso   1.000  H
  H26      1.0000 0.33069  0.24443  0.05134  Biso   1.000  H
  H27      1.0000 0.83149  0.80698  0.05182  Biso   1.000  H
  H28      1.0000 0.66927  0.75561  0.94865  Biso   1.000  H
  C1       1.0000 0.68111  0.76105  0.70770  Biso   1.000  C
  C2       1.0000 0.81881  0.05340  0.29231  Biso   1.000  C
  C3       1.0000 0.31858  0.23930  0.29234  Biso   1.000  C
  C4       1.0000 0.18101  0.94626  0.70744  Biso   1.000  C
  C5       1.0000 0.69269  0.81110  0.61734  Biso   1.000  C
  C6       1.0000 0.80744  0.19383  0.38269  Biso   1.000  C
  C7       1.0000 0.30736  0.18899  0.38265  Biso   1.000  C
  C8       1.0000 0.19275  0.80581  0.61722  Biso   1.000  C
  C9       1.0000 0.17407  0.61732  0.79632  Biso   1.000  C
  C10      1.0000 0.32619  0.82103  0.20346  Biso   1.000  C
  C11      1.0000 0.82583  0.38273  0.20369  Biso   1.000  C
  C12      1.0000 0.67391  0.17909  0.79668  Biso   1.000  C
  C13      1.0000 0.26383  0.55762  0.86454  Biso   1.000  C
  C14      1.0000 0.23631  0.69317  0.13516  Biso   1.000  C
  C15      1.0000 0.73610  0.44238  0.13542  Biso   1.000  C
  C16      1.0000 0.76381  0.30696  0.86491  Biso   1.000  C
  C17      1.0000 0.23087  0.41088  0.85947  Biso   1.000  C
  C18      1.0000 0.26900  0.55144  0.14017  Biso   1.000  C
  C19      1.0000 0.76907  0.58913  0.14050  Biso   1.000  C
  C20      1.0000 0.73107  0.44867  0.85987  Biso   1.000  C
  C21      1.0000 0.10251  0.33169  0.78578  Biso   1.000  C
  C22      1.0000 0.39722  0.54574  0.21387  Biso   1.000  C
  C23      1.0000 0.89743  0.66832  0.21420  Biso   1.000  C
  C24      1.0000 0.60283  0.45431  0.78618  Biso   1.000  C
  C25      1.0000 0.01788  0.39794  0.71971  Biso   1.000  C
  C26      1.0000 0.48193  0.67803  0.28009  Biso   1.000  C
  C27      1.0000 0.98199  0.60212  0.28033  Biso   1.000  C
  C28      1.0000 0.51809  0.32199  0.72003  Biso   1.000  C
  C29      1.0000 0.32953  0.34200  0.92974  Biso   1.000  C
  C30      1.0000 0.17013  0.41232  0.06991  Biso   1.000  C
  C31      1.0000 0.67041  0.65800  0.07023  Biso   1.000  C
  C32      1.0000 0.82990  0.58780  0.93012  Biso   1.000  C
  C33      1.0000 0.24971  0.28784  0.99982  Biso   1.000  C
  C34      1.0000 0.75026  0.71224  0.00020  Biso   1.000  C
  C35      1.0000 0.50001  0.00002  0.99999  Biso   1.000  C
  C36      1.0000 0.00000  0.99990  0.99989  Biso   1.000  C
  N1       1.0000 0.80429  0.76816  0.56692  Biso   1.000  N
  N2       1.0000 0.69587  0.20135  0.43312  Biso   1.000  N
  N3       1.0000 0.19592  0.23172  0.43323  Biso   1.000  N
  N4       1.0000 0.30448  0.79829  0.56689  Biso   1.000  N
  N5       1.0000 0.79279  0.83154  0.49242  Biso   1.000  N
  N6       1.0000 0.70750  0.33941  0.50767  Biso   1.000  N
  N7       1.0000 0.20777  0.16806  0.50770  Biso   1.000  N
  N8       1.0000 0.29287  0.66042  0.49234  Biso   1.000  N
  N9       1.0000 0.67527  0.91195  0.49793  Biso   1.000  N
  N10      1.0000 0.82494  0.41423  0.50215  Biso   1.000  N
  N11      1.0000 0.32524  0.08783  0.50199  Biso   1.000  N
  N12      1.0000 0.17518  0.58559  0.49779  Biso   1.000  N
  N13      1.0000 0.61069  0.90050  0.57537  Biso   1.000  N
  N14      1.0000 0.88950  0.32513  0.42460  Biso   1.000  N
  N15      1.0000 0.38957  0.09959  0.42439  Biso   1.000  N
  N16      1.0000 0.11063  0.67449  0.57520  Biso   1.000  N
  N17      1.0000 0.05370  0.53787  0.72376  Biso   1.000  N
  N18      1.0000 0.44630  0.81401  0.27616  Biso   1.000  N
  N19      1.0000 0.94611  0.46223  0.27632  Biso   1.000  N
  N20      1.0000 0.55370  0.18604  0.72402  Biso   1.000  N
  O1       1.0000 0.58330  0.80441  0.76007  Biso   1.000  O
  O2       1.0000 0.91631  0.04455  0.23972  Biso   1.000  O
  O3       1.0000 0.41597  0.19577  0.23960  Biso   1.000  O
  O4       1.0000 0.08336  0.95505  0.75992  Biso   1.000  O
  O5       1.0000 0.78346  0.67305  0.72346  Biso   1.000  O
  O6       1.0000 0.71654  0.94961  0.27679  Biso   1.000  O
  O7       1.0000 0.21637  0.32767  0.27703  Biso   1.000  O
  O8       1.0000 0.28305  0.05027  0.72302  Biso   1.000  O
  O9       1.0000 0.40339  0.90428  0.97114  Biso   1.000  O
  O10      1.0000 0.09694  0.93362  0.02899  Biso   1.000  O
  O11      1.0000 0.59661  0.09575  0.02885  Biso   1.000  O
  O12      1.0000 0.90307  0.06620  0.97083  Biso   1.000  O
