data_image0
_cell_length_a       6.71475
_cell_length_b       6.73998
_cell_length_c       17.8483
_cell_angle_alpha    89.9993
_cell_angle_beta     89.9997
_cell_angle_gamma    96.8076

_symmetry_space_group_name_H-M    "P 1"
_symmetry_int_tables_number       1

loop_
  _symmetry_equiv_pos_as_xyz
  'x, y, z'

loop_
  _atom_site_label
  _atom_site_occupancy
  _atom_site_fract_x
  _atom_site_fract_y
  _atom_site_fract_z
  _atom_site_thermal_displace_type
  _atom_site_B_iso_or_equiv
  _atom_site_type_symbol
  Ca1      1.0000 0.65015  0.70260  0.39297  Biso   1.000  Ca
  Ca2      1.0000 0.34985  0.79739  0.89297  Biso   1.000  Ca
  Ca3      1.0000 0.34986  0.29742  0.60703  Biso   1.000  Ca
  Ca4      1.0000 0.65015  0.20259  0.10703  Biso   1.000  Ca
  H1       1.0000 0.11568  0.35977  0.38164  Biso   1.000  H
  H2       1.0000 0.88431  0.14022  0.88164  Biso   1.000  H
  H3       1.0000 0.88430  0.64025  0.61836  Biso   1.000  H
  H4       1.0000 0.11570  0.85975  0.11836  Biso   1.000  H
  H5       1.0000 0.95264  0.26561  0.25443  Biso   1.000  H
  H6       1.0000 0.04735  0.23439  0.75443  Biso   1.000  H
  H7       1.0000 0.04736  0.73436  0.74557  Biso   1.000  H
  H8       1.0000 0.95264  0.76563  0.24557  Biso   1.000  H
  H9       1.0000 0.74375  0.32149  0.48962  Biso   1.000  H
  H10      1.0000 0.25625  0.17851  0.98962  Biso   1.000  H
  H11      1.0000 0.25624  0.67853  0.51038  Biso   1.000  H
  H12      1.0000 0.74376  0.82148  0.01038  Biso   1.000  H
  H13      1.0000 0.71563  0.25711  0.40436  Biso   1.000  H
  H14      1.0000 0.28437  0.24289  0.90436  Biso   1.000  H
  H15      1.0000 0.28437  0.74289  0.59564  Biso   1.000  H
  H16      1.0000 0.71563  0.75711  0.09564  Biso   1.000  H
  H17      1.0000 0.68270  0.94068  0.53604  Biso   1.000  H
  H18      1.0000 0.31730  0.55932  0.03604  Biso   1.000  H
  H19      1.0000 0.31727  0.05935  0.46396  Biso   1.000  H
  H20      1.0000 0.68272  0.44066  0.96396  Biso   1.000  H
  H21      1.0000 0.55148  0.73624  0.54623  Biso   1.000  H
  H22      1.0000 0.44852  0.76375  0.04623  Biso   1.000  H
  H23      1.0000 0.44851  0.26378  0.45377  Biso   1.000  H
  H24      1.0000 0.55149  0.23623  0.95377  Biso   1.000  H
  C1       1.0000 0.23716  0.38102  0.20511  Biso   1.000  C
  C2       1.0000 0.76284  0.11898  0.70511  Biso   1.000  C
  C3       1.0000 0.76284  0.61895  0.79489  Biso   1.000  C
  C4       1.0000 0.23716  0.88104  0.29489  Biso   1.000  C
  C5       1.0000 0.18982  0.38534  0.32791  Biso   1.000  C
  C6       1.0000 0.81019  0.11465  0.82791  Biso   1.000  C
  C7       1.0000 0.81018  0.61467  0.67208  Biso   1.000  C
  C8       1.0000 0.18982  0.88533  0.17209  Biso   1.000  C
  C9       1.0000 0.17748  0.32376  0.12672  Biso   1.000  C
  C10      1.0000 0.82252  0.17626  0.62672  Biso   1.000  C
  C11      1.0000 0.82252  0.67620  0.87328  Biso   1.000  C
  C12      1.0000 0.17748  0.82379  0.37328  Biso   1.000  C
  C13      1.0000 0.60702  0.56569  0.21396  Biso   1.000  C
  C14      1.0000 0.39299  0.93431  0.71396  Biso   1.000  C
  C15      1.0000 0.39298  0.43431  0.78604  Biso   1.000  C
  C16      1.0000 0.60702  0.06569  0.28604  Biso   1.000  C
  C17      1.0000 0.41090  0.46886  0.24158  Biso   1.000  C
  C18      1.0000 0.58910  0.03114  0.74157  Biso   1.000  C
  C19      1.0000 0.58909  0.53113  0.75842  Biso   1.000  C
  C20      1.0000 0.41090  0.96886  0.25843  Biso   1.000  C
  N1       1.0000 0.37761  0.46950  0.31800  Biso   1.000  N
  N2       1.0000 0.62239  0.03048  0.81800  Biso   1.000  N
  N3       1.0000 0.62237  0.53051  0.68200  Biso   1.000  N
  N4       1.0000 0.37762  0.96949  0.18200  Biso   1.000  N
  N5       1.0000 0.10065  0.33364  0.26177  Biso   1.000  N
  N6       1.0000 0.89934  0.16635  0.76177  Biso   1.000  N
  N7       1.0000 0.89934  0.66634  0.73823  Biso   1.000  N
  N8       1.0000 0.10066  0.83366  0.23823  Biso   1.000  N
  O1       1.0000 0.65659  0.54810  0.14554  Biso   1.000  O
  O2       1.0000 0.34342  0.95190  0.64554  Biso   1.000  O
  O3       1.0000 0.34340  0.45190  0.85446  Biso   1.000  O
  O4       1.0000 0.65660  0.04810  0.35446  Biso   1.000  O
  O5       1.0000 0.71810  0.66445  0.26237  Biso   1.000  O
  O6       1.0000 0.28190  0.83553  0.76237  Biso   1.000  O
  O7       1.0000 0.28189  0.33555  0.73763  Biso   1.000  O
  O8       1.0000 0.71810  0.16446  0.23763  Biso   1.000  O
  O9       1.0000 0.99347  0.28584  0.11310  Biso   1.000  O
  O10      1.0000 0.00653  0.21422  0.61310  Biso   1.000  O
  O11      1.0000 0.00652  0.71414  0.88691  Biso   1.000  O
  O12      1.0000 0.99347  0.78585  0.38691  Biso   1.000  O
  O13      1.0000 0.31629  0.31149  0.07760  Biso   1.000  O
  O14      1.0000 0.68372  0.18851  0.57760  Biso   1.000  O
  O15      1.0000 0.68371  0.68845  0.92240  Biso   1.000  O
  O16      1.0000 0.31629  0.81154  0.42241  Biso   1.000  O
  O17      1.0000 0.71165  0.37318  0.43931  Biso   1.000  O
  O18      1.0000 0.28835  0.12681  0.93931  Biso   1.000  O
  O19      1.0000 0.28835  0.62683  0.56069  Biso   1.000  O
  O20      1.0000 0.71165  0.87318  0.06069  Biso   1.000  O
  O21      1.0000 0.67535  0.79830  0.52160  Biso   1.000  O
  O22      1.0000 0.32465  0.70169  0.02160  Biso   1.000  O
  O23      1.0000 0.32464  0.20173  0.47841  Biso   1.000  O
  O24      1.0000 0.67536  0.29828  0.97841  Biso   1.000  O
