data_image0
_cell_length_a       7.39399
_cell_length_b       8.47116
_cell_length_c       8.47106
_cell_angle_alpha    108.251
_cell_angle_beta     99.041
_cell_angle_gamma    99.0409

_symmetry_space_group_name_H-M    "P 1"
_symmetry_int_tables_number       1

loop_
  _symmetry_equiv_pos_as_xyz
  'x, y, z'

loop_
  _atom_site_label
  _atom_site_occupancy
  _atom_site_fract_x
  _atom_site_fract_y
  _atom_site_fract_z
  _atom_site_thermal_displace_type
  _atom_site_B_iso_or_equiv
  _atom_site_type_symbol
  Ni1      1.0000 0.49999  0.99999  0.50000  Biso   1.000  Ni
  H1       1.0000 0.58398  0.81284  0.13367  Biso   1.000  H
  H2       1.0000 0.41600  0.36632  0.68713  Biso   1.000  H
  H3       1.0000 0.41602  0.18717  0.86632  Biso   1.000  H
  H4       1.0000 0.58400  0.63367  0.31287  Biso   1.000  H
  H5       1.0000 0.75621  0.31864  0.47721  Biso   1.000  H
  H6       1.0000 0.24378  0.02278  0.18134  Biso   1.000  H
  H7       1.0000 0.24378  0.68135  0.52279  Biso   1.000  H
  H8       1.0000 0.75620  0.97722  0.81866  Biso   1.000  H
  H9       1.0000 0.91261  0.45186  0.29841  Biso   1.000  H
  H10      1.0000 0.08738  0.20160  0.04814  Biso   1.000  H
  H11      1.0000 0.08738  0.54814  0.70161  Biso   1.000  H
  H12      1.0000 0.91261  0.79842  0.95187  Biso   1.000  H
  H13      1.0000 0.82467  0.34642  0.07363  Biso   1.000  H
  H14      1.0000 0.17533  0.42638  0.15358  Biso   1.000  H
  H15      1.0000 0.17533  0.65359  0.92638  Biso   1.000  H
  H16      1.0000 0.82467  0.57363  0.84643  Biso   1.000  H
  C1       1.0000 0.65207  0.94666  0.18924  Biso   1.000  C
  C2       1.0000 0.34793  0.31076  0.55333  Biso   1.000  C
  C3       1.0000 0.34793  0.05334  0.81075  Biso   1.000  C
  C4       1.0000 0.65207  0.68924  0.44667  Biso   1.000  C
  C5       1.0000 0.73756  0.20299  0.36867  Biso   1.000  C
  C6       1.0000 0.26245  0.13134  0.29700  Biso   1.000  C
  C7       1.0000 0.26243  0.79700  0.63133  Biso   1.000  C
  C8       1.0000 0.73755  0.86866  0.70300  Biso   1.000  C
  C9       1.0000 0.90313  0.33597  0.19047  Biso   1.000  C
  C10      1.0000 0.09688  0.30954  0.16404  Biso   1.000  C
  C11      1.0000 0.09686  0.66404  0.80954  Biso   1.000  C
  C12      1.0000 0.90312  0.69047  0.83597  Biso   1.000  C
  C13      1.0000 0.87451  0.26628  0.76627  Biso   1.000  C
  C14      1.0000 0.12553  0.73372  0.23373  Biso   1.000  C
  N1       1.0000 0.79786  0.19560  0.22618  Biso   1.000  N
  N2       1.0000 0.20214  0.27383  0.30441  Biso   1.000  N
  N3       1.0000 0.20214  0.80440  0.77382  Biso   1.000  N
  N4       1.0000 0.79785  0.72617  0.69559  Biso   1.000  N
  N5       1.0000 0.74604  0.03358  0.11067  Biso   1.000  N
  N6       1.0000 0.25396  0.38934  0.46643  Biso   1.000  N
  N7       1.0000 0.25396  0.96642  0.88933  Biso   1.000  N
  N8       1.0000 0.74604  0.61065  0.53357  Biso   1.000  N
  N9       1.0000 0.64333  0.04667  0.34830  Biso   1.000  N
  N10      1.0000 0.35668  0.15170  0.45333  Biso   1.000  N
  N11      1.0000 0.35666  0.95332  0.65169  Biso   1.000  N
  N12      1.0000 0.64332  0.84829  0.54667  Biso   1.000  N
  N13      1.0000 0.72155  0.28769  0.78771  Biso   1.000  N
  N14      1.0000 0.27848  0.71229  0.21229  Biso   1.000  N
  O1       1.0000 0.02962  0.24456  0.74456  Biso   1.000  O
  O2       1.0000 0.97042  0.75541  0.25540  Biso   1.000  O
