data_image0
_cell_length_a       7.91567
_cell_length_b       10.2814
_cell_length_c       10.4039
_cell_angle_alpha    108.804
_cell_angle_beta     90
_cell_angle_gamma    90

_symmetry_space_group_name_H-M    "P 1"
_symmetry_int_tables_number       1

loop_
  _symmetry_equiv_pos_as_xyz
  'x, y, z'

loop_
  _atom_site_label
  _atom_site_occupancy
  _atom_site_fract_x
  _atom_site_fract_y
  _atom_site_fract_z
  _atom_site_thermal_displace_type
  _atom_site_B_iso_or_equiv
  _atom_site_type_symbol
  Ag1      1.0000 0.40084  0.75000  0.50000  Biso   1.000  Ag
  Ag2      1.0000 0.59916  0.25000  0.50000  Biso   1.000  Ag
  H1       1.0000 0.09434  0.26402  0.25948  Biso   1.000  H
  H2       1.0000 0.09434  0.23598  0.74052  Biso   1.000  H
  H3       1.0000 0.90566  0.73598  0.74052  Biso   1.000  H
  H4       1.0000 0.90566  0.76402  0.25948  Biso   1.000  H
  H5       1.0000 0.69839  0.58468  0.35510  Biso   1.000  H
  H6       1.0000 0.69839  0.91532  0.64491  Biso   1.000  H
  H7       1.0000 0.30161  0.41532  0.64491  Biso   1.000  H
  H8       1.0000 0.30161  0.08468  0.35510  Biso   1.000  H
  H9       1.0000 0.52765  0.18068  0.11062  Biso   1.000  H
  H10      1.0000 0.52765  0.31932  0.88938  Biso   1.000  H
  H11      1.0000 0.47235  0.81933  0.88938  Biso   1.000  H
  H12      1.0000 0.47235  0.68068  0.11062  Biso   1.000  H
  H13      1.0000 0.19055  0.48537  0.37124  Biso   1.000  H
  H14      1.0000 0.19055  0.01463  0.62876  Biso   1.000  H
  H15      1.0000 0.80945  0.51463  0.62876  Biso   1.000  H
  H16      1.0000 0.80945  0.98537  0.37124  Biso   1.000  H
  H17      1.0000 0.91738  0.14235  0.05935  Biso   1.000  H
  H18      1.0000 0.91738  0.35765  0.94065  Biso   1.000  H
  H19      1.0000 0.08262  0.85765  0.94065  Biso   1.000  H
  H20      1.0000 0.08262  0.64235  0.05935  Biso   1.000  H
  H21      1.0000 0.96782  0.03518  0.15368  Biso   1.000  H
  H22      1.0000 0.96782  0.46482  0.84632  Biso   1.000  H
  H23      1.0000 0.03218  0.96482  0.84632  Biso   1.000  H
  H24      1.0000 0.03219  0.53518  0.15368  Biso   1.000  H
  C1       1.0000 0.59816  0.50922  0.31934  Biso   1.000  C
  C2       1.0000 0.59816  0.99078  0.68066  Biso   1.000  C
  C3       1.0000 0.40184  0.49078  0.68066  Biso   1.000  C
  C4       1.0000 0.40184  0.00922  0.31934  Biso   1.000  C
  C5       1.0000 0.62723  0.38007  0.22677  Biso   1.000  C
  C6       1.0000 0.62723  0.11993  0.77323  Biso   1.000  C
  C7       1.0000 0.37277  0.61993  0.77323  Biso   1.000  C
  C8       1.0000 0.37277  0.88007  0.22677  Biso   1.000  C
  C9       1.0000 0.50199  0.28181  0.18282  Biso   1.000  C
  C10      1.0000 0.50199  0.21819  0.81718  Biso   1.000  C
  C11      1.0000 0.49800  0.71819  0.81718  Biso   1.000  C
  C12      1.0000 0.49801  0.78181  0.18282  Biso   1.000  C
  C13      1.0000 0.33893  0.32045  0.23441  Biso   1.000  C
  C14      1.0000 0.33893  0.17955  0.76559  Biso   1.000  C
  C15      1.0000 0.66107  0.67955  0.76559  Biso   1.000  C
  C16      1.0000 0.66107  0.82045  0.23441  Biso   1.000  C
  C17      1.0000 0.31505  0.45256  0.32830  Biso   1.000  C
  C18      1.0000 0.31505  0.04744  0.67170  Biso   1.000  C
  C19      1.0000 0.68495  0.54744  0.67170  Biso   1.000  C
  C20      1.0000 0.68495  0.95256  0.32830  Biso   1.000  C
  C21      1.0000 0.18322  0.12013  0.08456  Biso   1.000  C
  C22      1.0000 0.18322  0.37987  0.91545  Biso   1.000  C
  C23      1.0000 0.81678  0.87987  0.91545  Biso   1.000  C
  C24      1.0000 0.81678  0.62013  0.08455  Biso   1.000  C
  C25      1.0000 0.00613  0.06183  0.06361  Biso   1.000  C
  C26      1.0000 0.00613  0.43817  0.93639  Biso   1.000  C
  C27      1.0000 0.99387  0.93817  0.93639  Biso   1.000  C
  C28      1.0000 0.99387  0.56183  0.06361  Biso   1.000  C
  N1       1.0000 0.44104  0.54351  0.36887  Biso   1.000  N
  N2       1.0000 0.44104  0.95649  0.63113  Biso   1.000  N
  N3       1.0000 0.55896  0.45649  0.63113  Biso   1.000  N
  N4       1.0000 0.55896  0.04351  0.36888  Biso   1.000  N
  N5       1.0000 0.19784  0.23655  0.19648  Biso   1.000  N
  N6       1.0000 0.19784  0.26345  0.80352  Biso   1.000  N
  N7       1.0000 0.80216  0.76345  0.80352  Biso   1.000  N
  N8       1.0000 0.80216  0.73655  0.19648  Biso   1.000  N
  N9       1.0000 0.99145  0.75000  0.50000  Biso   1.000  N
  N10      1.0000 0.00855  0.25000  0.50000  Biso   1.000  N
  O1       1.0000 0.30185  0.06948  0.00764  Biso   1.000  O
  O2       1.0000 0.30185  0.43052  0.99236  Biso   1.000  O
  O3       1.0000 0.69815  0.93052  0.99236  Biso   1.000  O
  O4       1.0000 0.69815  0.56948  0.00764  Biso   1.000  O
  O5       1.0000 0.07252  0.72550  0.59561  Biso   1.000  O
  O6       1.0000 0.07252  0.77450  0.40439  Biso   1.000  O
  O7       1.0000 0.92748  0.27450  0.40439  Biso   1.000  O
  O8       1.0000 0.92748  0.22550  0.59561  Biso   1.000  O
  O9       1.0000 0.83206  0.75000  0.50000  Biso   1.000  O
  O10      1.0000 0.16794  0.25000  0.50000  Biso   1.000  O
  F1       1.0000 0.78694  0.35009  0.17718  Biso   1.000  F
  F2       1.0000 0.78694  0.14991  0.82282  Biso   1.000  F
  F3       1.0000 0.21306  0.64991  0.82282  Biso   1.000  F
  F4       1.0000 0.21306  0.85009  0.17718  Biso   1.000  F
