data_image0
_cell_length_a       8.34219
_cell_length_b       10.2649
_cell_length_c       11.0742
_cell_angle_alpha    66.1149
_cell_angle_beta     71.003
_cell_angle_gamma    78.9608

_symmetry_space_group_name_H-M    "P 1"
_symmetry_int_tables_number       1

loop_
  _symmetry_equiv_pos_as_xyz
  'x, y, z'

loop_
  _atom_site_label
  _atom_site_occupancy
  _atom_site_fract_x
  _atom_site_fract_y
  _atom_site_fract_z
  _atom_site_thermal_displace_type
  _atom_site_B_iso_or_equiv
  _atom_site_type_symbol
  Gd1      1.0000 0.14436  0.43880  0.64569  Biso   1.000  Gd
  Gd2      1.0000 0.85564  0.56120  0.35431  Biso   1.000  Gd
  H1       1.0000 0.40430  0.59517  0.37987  Biso   1.000  H
  H2       1.0000 0.59570  0.40483  0.62013  Biso   1.000  H
  H3       1.0000 0.46623  0.43724  0.41863  Biso   1.000  H
  H4       1.0000 0.53377  0.56276  0.58137  Biso   1.000  H
  H5       1.0000 0.14098  0.65252  0.82172  Biso   1.000  H
  H6       1.0000 0.85902  0.34748  0.17829  Biso   1.000  H
  H7       1.0000 0.50993  0.80508  0.53322  Biso   1.000  H
  H8       1.0000 0.49007  0.19491  0.46678  Biso   1.000  H
  H9       1.0000 0.61452  0.73727  0.66630  Biso   1.000  H
  H10      1.0000 0.38548  0.26273  0.33369  Biso   1.000  H
  H11      1.0000 0.53437  0.91958  0.61162  Biso   1.000  H
  H12      1.0000 0.46564  0.08042  0.38838  Biso   1.000  H
  H13      1.0000 0.16810  0.80496  0.90429  Biso   1.000  H
  H14      1.0000 0.83191  0.19505  0.09571  Biso   1.000  H
  H15      1.0000 0.26049  0.96354  0.77065  Biso   1.000  H
  H16      1.0000 0.73952  0.03646  0.22934  Biso   1.000  H
  H17      1.0000 0.38017  0.83649  0.88180  Biso   1.000  H
  H18      1.0000 0.61984  0.16351  0.11820  Biso   1.000  H
  H19      1.0000 0.99283  0.97430  0.73417  Biso   1.000  H
  H20      1.0000 0.00717  0.02569  0.26583  Biso   1.000  H
  H21      1.0000 0.06140  0.23480  0.30710  Biso   1.000  H
  H22      1.0000 0.93860  0.76520  0.69290  Biso   1.000  H
  H23      1.0000 0.55763  0.33578  0.87470  Biso   1.000  H
  H24      1.0000 0.44237  0.66422  0.12530  Biso   1.000  H
  H25      1.0000 0.73828  0.62969  0.97831  Biso   1.000  H
  H26      1.0000 0.26171  0.37031  0.02169  Biso   1.000  H
  H27      1.0000 0.20079  0.08478  0.08302  Biso   1.000  H
  H28      1.0000 0.79921  0.91523  0.91698  Biso   1.000  H
  H29      1.0000 0.65923  0.11826  0.75465  Biso   1.000  H
  H30      1.0000 0.34077  0.88174  0.24535  Biso   1.000  H
  C1       1.0000 0.26113  0.67430  0.73959  Biso   1.000  C
  C2       1.0000 0.73888  0.32570  0.26041  Biso   1.000  C
  C3       1.0000 0.51126  0.81089  0.62963  Biso   1.000  C
  C4       1.0000 0.48874  0.18911  0.37037  Biso   1.000  C
  C5       1.0000 0.28551  0.84929  0.82775  Biso   1.000  C
  C6       1.0000 0.71450  0.15071  0.17225  Biso   1.000  C
  C7       1.0000 0.06271  0.23683  0.55163  Biso   1.000  C
  C8       1.0000 0.93729  0.76317  0.44837  Biso   1.000  C
  C9       1.0000 0.02812  0.11607  0.52381  Biso   1.000  C
  C10      1.0000 0.97188  0.88393  0.47620  Biso   1.000  C
  C11      1.0000 0.99538  0.98402  0.63205  Biso   1.000  C
  C12      1.0000 0.00462  0.01598  0.36795  Biso   1.000  C
  C13      1.0000 0.03354  0.13190  0.39088  Biso   1.000  C
  C14      1.0000 0.96646  0.86809  0.60912  Biso   1.000  C
  C15      1.0000 0.83464  0.45861  0.82984  Biso   1.000  C
  C16      1.0000 0.16536  0.54139  0.17016  Biso   1.000  C
  C17      1.0000 0.66222  0.48084  0.91802  Biso   1.000  C
  C18      1.0000 0.33777  0.51916  0.08198  Biso   1.000  C
  C19      1.0000 0.52915  0.40730  0.93038  Biso   1.000  C
  C20      1.0000 0.47085  0.59270  0.06962  Biso   1.000  C
  C21      1.0000 0.63307  0.57427  0.98774  Biso   1.000  C
  C22      1.0000 0.36692  0.42573  0.01226  Biso   1.000  C
  C23      1.0000 0.33531  0.23428  0.81759  Biso   1.000  C
  C24      1.0000 0.66469  0.76572  0.18241  Biso   1.000  C
  C25      1.0000 0.42124  0.11254  0.91057  Biso   1.000  C
  C26      1.0000 0.57876  0.88746  0.08943  Biso   1.000  C
  C27      1.0000 0.33194  0.04622  0.04862  Biso   1.000  C
  C28      1.0000 0.66806  0.95378  0.95138  Biso   1.000  C
  C29      1.0000 0.59031  0.06571  0.86194  Biso   1.000  C
  C30      1.0000 0.40969  0.93429  0.13806  Biso   1.000  C
  N1       1.0000 0.34842  0.77370  0.73264  Biso   1.000  N
  N2       1.0000 0.65158  0.22630  0.26736  Biso   1.000  N
  O1       1.0000 0.00667  0.36493  0.49236  Biso   1.000  O
  O2       1.0000 0.99333  0.63506  0.50764  Biso   1.000  O
  O3       1.0000 0.15060  0.20891  0.63481  Biso   1.000  O
  O4       1.0000 0.84939  0.79109  0.36519  Biso   1.000  O
  O5       1.0000 0.86306  0.36415  0.77688  Biso   1.000  O
  O6       1.0000 0.13694  0.63585  0.22312  Biso   1.000  O
  O7       1.0000 0.95197  0.53748  0.80679  Biso   1.000  O
  O8       1.0000 0.04802  0.46253  0.19321  Biso   1.000  O
  O9       1.0000 0.18230  0.27548  0.86546  Biso   1.000  O
  O10      1.0000 0.81770  0.72452  0.13454  Biso   1.000  O
  O11      1.0000 0.41588  0.29623  0.69092  Biso   1.000  O
  O12      1.0000 0.58412  0.70378  0.30907  Biso   1.000  O
  O13      1.0000 0.36010  0.49904  0.42926  Biso   1.000  O
  O14      1.0000 0.63990  0.50096  0.57074  Biso   1.000  O
  O15      1.0000 0.30808  0.60696  0.65844  Biso   1.000  O
  O16      1.0000 0.69192  0.39303  0.34156  Biso   1.000  O
