data_image0
_cell_length_a       6.51291
_cell_length_b       7.53242
_cell_length_c       14.6685
_cell_angle_alpha    90
_cell_angle_beta     89.9996
_cell_angle_gamma    95.9193

_symmetry_space_group_name_H-M    "P 1"
_symmetry_int_tables_number       1

loop_
  _symmetry_equiv_pos_as_xyz
  'x, y, z'

loop_
  _atom_site_label
  _atom_site_occupancy
  _atom_site_fract_x
  _atom_site_fract_y
  _atom_site_fract_z
  _atom_site_thermal_displace_type
  _atom_site_B_iso_or_equiv
  _atom_site_type_symbol
  Zn1      1.0000 0.23095  0.44739  0.21407  Biso   1.000  Zn
  Zn2      1.0000 0.26905  0.55262  0.71407  Biso   1.000  Zn
  Zn3      1.0000 0.76906  0.55262  0.78593  Biso   1.000  Zn
  Zn4      1.0000 0.73095  0.44739  0.28593  Biso   1.000  Zn
  Zn5      1.0000 0.49998  0.00002  0.50000  Biso   1.000  Zn
  Zn6      1.0000 0.99999  0.00001  1.00000  Biso   1.000  Zn
  H1       1.0000 0.95550  0.20875  0.24447  Biso   1.000  H
  H2       1.0000 0.54450  0.79126  0.74447  Biso   1.000  H
  H3       1.0000 0.04451  0.79126  0.75553  Biso   1.000  H
  H4       1.0000 0.45550  0.20875  0.25553  Biso   1.000  H
  H5       1.0000 0.26467  0.45848  0.40725  Biso   1.000  H
  H6       1.0000 0.23534  0.54153  0.90726  Biso   1.000  H
  H7       1.0000 0.73534  0.54153  0.59275  Biso   1.000  H
  H8       1.0000 0.76468  0.45848  0.09274  Biso   1.000  H
  H9       1.0000 0.06769  0.58709  0.43758  Biso   1.000  H
  H10      1.0000 0.43231  0.41290  0.93759  Biso   1.000  H
  H11      1.0000 0.93232  0.41291  0.56242  Biso   1.000  H
  H12      1.0000 0.56770  0.58710  0.06242  Biso   1.000  H
  H13      1.0000 0.11597  0.11539  0.50823  Biso   1.000  H
  H14      1.0000 0.38387  0.88443  0.00824  Biso   1.000  H
  H15      1.0000 0.88383  0.88438  0.49176  Biso   1.000  H
  H16      1.0000 0.61601  0.11542  0.99177  Biso   1.000  H
  H17      1.0000 0.17503  0.08973  0.61189  Biso   1.000  H
  H18      1.0000 0.32497  0.91031  0.11189  Biso   1.000  H
  H19      1.0000 0.82497  0.91031  0.38810  Biso   1.000  H
  H20      1.0000 0.67503  0.08972  0.88811  Biso   1.000  H
  C1       1.0000 0.30660  0.72766  0.36191  Biso   1.000  C
  C2       1.0000 0.19340  0.27236  0.86191  Biso   1.000  C
  C3       1.0000 0.69339  0.27236  0.63809  Biso   1.000  C
  C4       1.0000 0.80661  0.72766  0.13809  Biso   1.000  C
  C5       1.0000 0.23749  0.59212  0.43168  Biso   1.000  C
  C6       1.0000 0.26251  0.40789  0.93168  Biso   1.000  C
  C7       1.0000 0.76251  0.40789  0.56832  Biso   1.000  C
  C8       1.0000 0.73752  0.59212  0.06832  Biso   1.000  C
  C9       1.0000 0.32320  0.61316  0.52759  Biso   1.000  C
  C10      1.0000 0.17681  0.38684  0.02759  Biso   1.000  C
  C11      1.0000 0.67682  0.38685  0.47241  Biso   1.000  C
  C12      1.0000 0.82321  0.61317  0.97241  Biso   1.000  C
  N1       1.0000 0.29276  0.69439  0.27198  Biso   1.000  N
  N2       1.0000 0.20723  0.30563  0.77198  Biso   1.000  N
  N3       1.0000 0.70723  0.30562  0.72802  Biso   1.000  N
  N4       1.0000 0.79277  0.69439  0.22802  Biso   1.000  N
  N5       1.0000 0.35174  0.85032  0.22957  Biso   1.000  N
  N6       1.0000 0.14826  0.14970  0.72957  Biso   1.000  N
  N7       1.0000 0.64825  0.14969  0.77043  Biso   1.000  N
  N8       1.0000 0.85174  0.85032  0.27043  Biso   1.000  N
  N9       1.0000 0.40065  0.97304  0.29094  Biso   1.000  N
  N10      1.0000 0.09936  0.02698  0.79094  Biso   1.000  N
  N11      1.0000 0.59935  0.02697  0.70906  Biso   1.000  N
  N12      1.0000 0.90064  0.97304  0.20906  Biso   1.000  N
  N13      1.0000 0.37400  0.90023  0.37481  Biso   1.000  N
  N14      1.0000 0.12600  0.09978  0.87480  Biso   1.000  N
  N15      1.0000 0.62600  0.09978  0.62520  Biso   1.000  N
  N16      1.0000 0.87401  0.90023  0.12519  Biso   1.000  N
  O1       1.0000 0.98298  0.33154  0.26886  Biso   1.000  O
  O2       1.0000 0.51703  0.66846  0.76886  Biso   1.000  O
  O3       1.0000 0.01703  0.66847  0.73114  Biso   1.000  O
  O4       1.0000 0.48298  0.33155  0.23114  Biso   1.000  O
  O5       1.0000 0.44519  0.74434  0.55341  Biso   1.000  O
  O6       1.0000 0.05484  0.25567  0.05343  Biso   1.000  O
  O7       1.0000 0.55486  0.25568  0.44658  Biso   1.000  O
  O8       1.0000 0.94520  0.74434  0.94658  Biso   1.000  O
  O9       1.0000 0.25837  0.48461  0.58116  Biso   1.000  O
  O10      1.0000 0.24163  0.51542  0.08117  Biso   1.000  O
  O11      1.0000 0.74164  0.51542  0.41884  Biso   1.000  O
  O12      1.0000 0.75839  0.48461  0.91884  Biso   1.000  O
  O13      1.0000 0.18830  0.04061  0.54893  Biso   1.000  O
  O14      1.0000 0.31174  0.95937  0.04892  Biso   1.000  O
  O15      1.0000 0.81175  0.95937  0.45108  Biso   1.000  O
  O16      1.0000 0.68829  0.04062  0.95107  Biso   1.000  O
